/*---------------------------------------------------------------------------*\
  =========                 |
  \\      /  F ield         | OpenFOAM: The Open Source CFD Toolbox
   \\    /   O peration     | Website:  https://openfoam.org
    \\  /    A nd           | Version:  8
     \\/     M anipulation  |
\*---------------------------------------------------------------------------*/
Build  : 8-1c9b5879390b
Exec   : urbanMicroclimateFoam
Date   : Jan 29 2025
Time   : 22:05:38
Host   : "DESKTOP-7UI3F9D"
PID    : 20680
I/O    : uncollated
Case   : /home/alvarezdm/OpenFOAM/sim01
nProcs : 1
sigFpe : Enabling floating point exception trapping (FOAM_SIGFPE).
fileModificationChecking : Monitoring run-time modified files using timeStampMaster (fileModificationSkew 10)
allowSystemOperations : Allowing user-supplied system call operations

// * * * * * * * * * * * * * * * * * * * * * * * * * * * * * * * * * * * * * //
Create time

Create fluid mesh for region air for time = 0

Create solid mesh for region buildings for time = 0

Create vegetation mesh for region vegetation for time = 0

*** Reading fluid mesh thermophysical properties for region air

    Adding to thermoFluid

Selecting thermodynamics package 
{
    type            heRhoThermo;
    mixture         pureMixture;
    transport       const;
    thermo          hConst;
    equationOfState Boussinesq;
    specie          specie;
    energy          sensibleEnthalpy;
}

    Adding to rhoFluid

Radiation model not active: radiationProperties not found
Selecting radiationModel none
solarLoad model not active: solarLoadProperties not found
Selecting solarLoadModel none
Selecting vegetationModel simplifiedVegetation
 Defined simplifiedVegetation model
Grass model not active: grassProperties not found
Selecting grassModel none
    Adding to UFluid

    Adding to wFluid

    Adding to gcrFluid

    Adding to phiFluid

    Adding to gFluid

    Adding to turbulence

Selecting turbulence model type RAS
Selecting RAS turbulence model realizableKE
RAS
{
    RASModel        realizableKE;
    turbulence      on;
    printCoeffs     on;
    A0              4;
    C2              1.9;
    sigmak          1;
    sigmaEps        1.2;
}

    Adding to thermophysical transport

Selecting thermophysical transport type RAS
Selecting default RAS thermophysical transport model eddyDiffusivity
    Adding to ghFluid

    Adding to ghfFluid

pressureControl
    pMax 120000
    pMin 80000

    Adding MRF

No MRF models present

    Adding fvOptions

Creating finite volume options from "system/fvOptions"

Selecting finite volume options model type limitTemperature
    Source: limitT
    - selecting all cells
    - selected 167754 cell(s) with volume 38153927
    Adding solidTransportProperties

    Adding to rho_mSolid

    Adding to cap_mSolid

    Adding to lambda_mSolid

    Adding to TsSolid

    Adding to wsSolid

    Adding to pcSolid

    Adding to KrelSolid

    Adding to K_vSolid

    Adding to K_ptSolid

    Adding to CrelSolid

    Adding to gSolid

*** Reading fluid mesh thermophysical properties for region vegetation

    Adding to TVeg

Selecting radiationModel viewFactorSky
Selecting absorptionEmissionModel none
Selecting scatterModel none
Selecting solarLoadModel directAndDiffuse
Selecting solarLoadAbsorptionEmissionModel none
Selecting solarLoadScatterModel none
Selected patches:8(0 1 2 3 4 5 6 7)
Number of coarse faces:2023
wallPatchOrNot_: 8(0 0 0 0 1 0 1 1)
nLocalWallCoarseFaces_: 1932
Selected patches:8(0 1 2 3 4 5 6 7)
Number of coarse faces:2023
wallPatchOrNot_: 7(0 0 0 0 1 0 1)
nLocalWallCoarseFaces_: 1932
Total number of clusters : 2023
Total number of fine faces : 54124
Insert elements in the matrix...
Smoothing the matrix...

Time = 3600

Solving for fluid region air

SIMPLE: Convergence criteria found
        p_rgh: tolerance 0.001
        U: tolerance 0.0001
        h: tolerance 0.0001
        w: tolerance 0.0001
        "(k|epsilon|omega)": tolerance 0.0001
        Tl: tolerance 0.0001

Internal iteration number: 1
DILUPBiCGStab:  Solving for Ux, Initial residual = 1, Final residual = 0.0055605923, No Iterations 1
DILUPBiCGStab:  Solving for Uy, Initial residual = 1, Final residual = 0.0071077895, No Iterations 2
DILUPBiCGStab:  Solving for Uz, Initial residual = 1, Final residual = 0.0076486546, No Iterations 1
DILUPBiCGStab:  Solving for h, Initial residual = 1, Final residual = 0.0097132286, No Iterations 1
Min/max T:273.15227 350.15434
GAMG:  Solving for p_rgh, Initial residual = 0.96013633, Final residual = 0.0069535488, No Iterations 5
time step continuity errors : sum local = 251.62142, global = -18.681827, cumulative = -18.681827
DILUPBiCGStab:  Solving for w, Initial residual = 1, Final residual = 0.0066202516, No Iterations 4
bounding magU, min: 0 max: 286.97114 average: 44.421335
    max leaf temp tl=max(new_Tl) [0 0 0 1 0 0 0] 293.15k, iteration i=0
    max leaf temp tl=300.17385 K, iteration i=1
    max leaf temp tl=300.13219 K, iteration i=2
    max leaf temp tl=300.10021 K, iteration i=3
    max leaf temp tl=300.07644 K, iteration i=4
    max leaf temp tl=300.05916 K, iteration i=5
    max leaf temp tl=300.04678 K, iteration i=6
    max leaf temp tl=300.03802 K, iteration i=7
    max leaf temp tl=300.03185 K, iteration i=8
    max leaf temp tl=300.02754 K, iteration i=9
    max leaf temp tl=300.02453 K, iteration i=10
    max leaf temp tl=300.02244 K, iteration i=11
    max leaf temp tl=300.02099 K, iteration i=12
    max leaf temp tl=300.01998 K, iteration i=13
    max leaf temp tl=300.01928 K, iteration i=14
    max leaf temp tl=300.0188 K, iteration i=15
    max leaf temp tl=300.01846 K, iteration i=16
Vegetation model:  Solving for Tl, Final residual = 0.028253913, Final relative residual = 9.4173914e-05, No Iterations 16
temperature parameters: max Tl = 299.99869, min T = 273.15227, max T = 350.15434
resistances: max rs = 2267.1685, max ra = 19.409317
DILUPBiCGStab:  Solving for epsilon, Initial residual = 0.43719712, Final residual = 0.0010729026, No Iterations 1
DILUPBiCGStab:  Solving for k, Initial residual = 1, Final residual = 0.0013594409, No Iterations 1

Internal iteration number: 2
DILUPBiCGStab:  Solving for Ux, Initial residual = 0.47999037, Final residual = 0.0010175909, No Iterations 1
DILUPBiCGStab:  Solving for Uy, Initial residual = 0.46178272, Final residual = 0.0037681158, No Iterations 1
DILUPBiCGStab:  Solving for Uz, Initial residual = 0.26424759, Final residual = 0.00064079453, No Iterations 2
DILUPBiCGStab:  Solving for h, Initial residual = 0.46623069, Final residual = 0.0045502617, No Iterations 1
Min/max T:273.1529 350.14849
GAMG:  Solving for p_rgh, Initial residual = 0.79479066, Final residual = 0.0060037408, No Iterations 5
time step continuity errors : sum local = 0.019806433, global = 0.00077759593, cumulative = -18.68105
pressureControl: p min 23425.387
DILUPBiCGStab:  Solving for w, Initial residual = 0.43979606, Final residual = 0.0039517044, No Iterations 3
bounding magU, min: 0 max: 206.99719 average: 28.876244
    max leaf temp tl=max(new_Tl) [0 0 0 1 0 0 0] 299.99869k, iteration i=0
    max leaf temp tl=308.64811 K, iteration i=1
    max leaf temp tl=308.60589 K, iteration i=2
    max leaf temp tl=308.57192 K, iteration i=3
    max leaf temp tl=308.54582 K, iteration i=4
    max leaf temp tl=308.52637 K, iteration i=5
    max leaf temp tl=308.5122 K, iteration i=6
    max leaf temp tl=308.50203 K, iteration i=7
    max leaf temp tl=308.49481 K, iteration i=8
    max leaf temp tl=308.48972 K, iteration i=9
    max leaf temp tl=308.48615 K, iteration i=10
    max leaf temp tl=308.48365 K, iteration i=11
    max leaf temp tl=308.48191 K, iteration i=12
    max leaf temp tl=308.4807 K, iteration i=13
    max leaf temp tl=308.47985 K, iteration i=14
    max leaf temp tl=308.47927 K, iteration i=15
    max leaf temp tl=308.47886 K, iteration i=16
    max leaf temp tl=308.47858 K, iteration i=17
Vegetation model:  Solving for Tl, Final residual = 0.029985098, Final relative residual = 9.7203176e-05, No Iterations 17
temperature parameters: max Tl = 308.45759, min T = 273.1529, max T = 350.14849
resistances: max rs = 2324.4245, max ra = 119.56745
DILUPBiCGStab:  Solving for epsilon, Initial residual = 0.14470956, Final residual = 0.00038539532, No Iterations 1
DILUPBiCGStab:  Solving for k, Initial residual = 0.36765366, Final residual = 0.0014656697, No Iterations 1

Internal iteration number: 3
DILUPBiCGStab:  Solving for Ux, Initial residual = 0.51970694, Final residual = 0.0010328539, No Iterations 2
DILUPBiCGStab:  Solving for Uy, Initial residual = 0.3723302, Final residual = 0.0014836775, No Iterations 2
DILUPBiCGStab:  Solving for Uz, Initial residual = 0.61202908, Final residual = 0.0030452492, No Iterations 2
DILUPBiCGStab:  Solving for h, Initial residual = 0.19620287, Final residual = 0.00029033458, No Iterations 2
Min/max T:273.15102 350.15714
GAMG:  Solving for p_rgh, Initial residual = 0.6614115, Final residual = 0.0018249081, No Iterations 4
time step continuity errors : sum local = 0.0053641088, global = -0.0005856079, cumulative = -18.681635
pressureControl: p max 140732.93
DILUPBiCGStab:  Solving for w, Initial residual = 0.30588534, Final residual = 0.0017921765, No Iterations 4
bounding magU, min: 0 max: 740.14294 average: 21.530889
    max leaf temp tl=max(new_Tl) [0 0 0 1 0 0 0] 308.45759k, iteration i=0
    max leaf temp tl=327.8123 K, iteration i=1
    max leaf temp tl=327.605 K, iteration i=2
    max leaf temp tl=327.41335 K, iteration i=3
    max leaf temp tl=327.25201 K, iteration i=4
    max leaf temp tl=327.12491 K, iteration i=5
    max leaf temp tl=327.02938 K, iteration i=6
    max leaf temp tl=326.95993 K, iteration i=7
    max leaf temp tl=326.91061 K, iteration i=8
    max leaf temp tl=326.87614 K, iteration i=9
    max leaf temp tl=326.85231 K, iteration i=10
    max leaf temp tl=326.83596 K, iteration i=11
    max leaf temp tl=326.82481 K, iteration i=12
    max leaf temp tl=326.81722 K, iteration i=13
    max leaf temp tl=326.81208 K, iteration i=14
    max leaf temp tl=326.80859 K, iteration i=15
    max leaf temp tl=326.80624 K, iteration i=16
    max leaf temp tl=326.80464 K, iteration i=17
    max leaf temp tl=326.80356 K, iteration i=18
    max leaf temp tl=326.80284 K, iteration i=19
Vegetation model:  Solving for Tl, Final residual = 0.027631853, Final relative residual = 8.455206e-05, No Iterations 19
temperature parameters: max Tl = 326.78904, min T = 273.15102, max T = 350.15714
resistances: max rs = 3017.8265, max ra = 42.639542
DILUPBiCGStab:  Solving for epsilon, Initial residual = 0.17598711, Final residual = 0.00042716976, No Iterations 1
DILUPBiCGStab:  Solving for k, Initial residual = 0.54424078, Final residual = 0.0011925264, No Iterations 1

Internal iteration number: 4
DILUPBiCGStab:  Solving for Ux, Initial residual = 0.35716, Final residual = 0.0012634372, No Iterations 2
DILUPBiCGStab:  Solving for Uy, Initial residual = 0.41606248, Final residual = 0.001883429, No Iterations 2
DILUPBiCGStab:  Solving for Uz, Initial residual = 0.61280069, Final residual = 0.0029947798, No Iterations 2
DILUPBiCGStab:  Solving for h, Initial residual = 0.13361323, Final residual = 0.0013102239, No Iterations 1
Min/max T:273.14401 333.72341
GAMG:  Solving for p_rgh, Initial residual = 0.70542561, Final residual = 0.0033752641, No Iterations 5
time step continuity errors : sum local = 0.014827659, global = 0.00087260309, cumulative = -18.680763
DILUPBiCGStab:  Solving for w, Initial residual = 0.25620937, Final residual = 0.00094924854, No Iterations 4
bounding magU, min: 0 max: 315.82186 average: 28.063753
    max leaf temp tl=max(new_Tl) [0 0 0 1 0 0 0] 326.78904k, iteration i=0
    max leaf temp tl=303.24663 K, iteration i=1
    max leaf temp tl=304.46343 K, iteration i=2
    max leaf temp tl=305.0318 K, iteration i=3
    max leaf temp tl=305.33727 K, iteration i=4
    max leaf temp tl=305.51542 K, iteration i=5
    max leaf temp tl=305.62481 K, iteration i=6
    max leaf temp tl=305.69428 K, iteration i=7
    max leaf temp tl=305.73939 K, iteration i=8
    max leaf temp tl=305.76913 K, iteration i=9
    max leaf temp tl=305.78894 K, iteration i=10
    max leaf temp tl=305.80222 K, iteration i=11
    max leaf temp tl=305.81116 K, iteration i=12
    max leaf temp tl=305.81721 K, iteration i=13
    max leaf temp tl=305.8213 K, iteration i=14
    max leaf temp tl=305.82408 K, iteration i=15
    max leaf temp tl=305.82596 K, iteration i=16
    max leaf temp tl=305.82724 K, iteration i=17
    max leaf temp tl=305.82811 K, iteration i=18
    max leaf temp tl=305.8287 K, iteration i=19
    max leaf temp tl=305.8291 K, iteration i=20
    max leaf temp tl=305.82938 K, iteration i=21
Vegetation model:  Solving for Tl, Final residual = 0.022212601, Final relative residual = 7.2630697e-05, No Iterations 21
temperature parameters: max Tl = 305.83597, min T = 273.14401, max T = 332.48869
resistances: max rs = 1797.5944, max ra = 38.396898
DILUPBiCGStab:  Solving for epsilon, Initial residual = 0.23832877, Final residual = 0.00052290635, No Iterations 1
DILUPBiCGStab:  Solving for k, Initial residual = 0.42909002, Final residual = 0.0009180051, No Iterations 1

Internal iteration number: 5
DILUPBiCGStab:  Solving for Ux, Initial residual = 0.27862315, Final residual = 0.0026179625, No Iterations 1
DILUPBiCGStab:  Solving for Uy, Initial residual = 0.26627604, Final residual = 0.0010205301, No Iterations 2
DILUPBiCGStab:  Solving for Uz, Initial residual = 0.46864704, Final residual = 0.001715137, No Iterations 2
DILUPBiCGStab:  Solving for h, Initial residual = 0.1305906, Final residual = 0.0010988762, No Iterations 1
Min/max T:273.15231 335.98563
GAMG:  Solving for p_rgh, Initial residual = 0.67031866, Final residual = 0.003728645, No Iterations 4
time step continuity errors : sum local = 0.0079177444, global = 0.0002432058, cumulative = -18.68052
DILUPBiCGStab:  Solving for w, Initial residual = 0.19597355, Final residual = 0.0006625853, No Iterations 4
bounding magU, min: 0 max: 185.34079 average: 19.103447
    max leaf temp tl=max(new_Tl) [0 0 0 1 0 0 0] 305.83597k, iteration i=0
    max leaf temp tl=328.53656 K, iteration i=1
    max leaf temp tl=328.25381 K, iteration i=2
    max leaf temp tl=327.98881 K, iteration i=3
    max leaf temp tl=327.76448 K, iteration i=4
    max leaf temp tl=327.58784 K, iteration i=5
    max leaf temp tl=327.45572 K, iteration i=6
    max leaf temp tl=327.36042 K, iteration i=7
    max leaf temp tl=327.2934 K, iteration i=8
    max leaf temp tl=327.24707 K, iteration i=9
    max leaf temp tl=327.21542 K, iteration i=10
    max leaf temp tl=327.19398 K, iteration i=11
    max leaf temp tl=327.17953 K, iteration i=12
    max leaf temp tl=327.16982 K, iteration i=13
    max leaf temp tl=327.16332 K, iteration i=14
    max leaf temp tl=327.15897 K, iteration i=15
    max leaf temp tl=327.15607 K, iteration i=16
    max leaf temp tl=327.15413 K, iteration i=17
    max leaf temp tl=327.15284 K, iteration i=18
    max leaf temp tl=327.15197 K, iteration i=19
    max leaf temp tl=327.1514 K, iteration i=20
Vegetation model:  Solving for Tl, Final residual = 0.023762021, Final relative residual = 7.2633102e-05, No Iterations 20
temperature parameters: max Tl = 327.14336, min T = 285.93504, max T = 335.98563
resistances: max rs = 2826.5776, max ra = 88.361829
DILUPBiCGStab:  Solving for epsilon, Initial residual = 0.20883218, Final residual = 0.00043382746, No Iterations 1
DILUPBiCGStab:  Solving for k, Initial residual = 0.25250577, Final residual = 0.00063025995, No Iterations 1

Internal iteration number: 6
DILUPBiCGStab:  Solving for Ux, Initial residual = 0.2665344, Final residual = 0.00092858604, No Iterations 2
DILUPBiCGStab:  Solving for Uy, Initial residual = 0.29368823, Final residual = 0.0011500801, No Iterations 2
DILUPBiCGStab:  Solving for Uz, Initial residual = 0.60085627, Final residual = 0.0021725642, No Iterations 2
DILUPBiCGStab:  Solving for h, Initial residual = 0.084140884, Final residual = 0.00078943564, No Iterations 1
Min/max T:285.58775 334.79776
GAMG:  Solving for p_rgh, Initial residual = 0.76644841, Final residual = 0.0064089454, No Iterations 5
time step continuity errors : sum local = 0.01360827, global = -0.001043186, cumulative = -18.681563
DILUPBiCGStab:  Solving for w, Initial residual = 0.14425519, Final residual = 0.00063595594, No Iterations 4
bounding magU, min: 0 max: 102.77125 average: 20.972786
    max leaf temp tl=max(new_Tl) [0 0 0 1 0 0 0] 327.14336k, iteration i=0
    max leaf temp tl=322.6073 K, iteration i=1
    max leaf temp tl=322.68568 K, iteration i=2
    max leaf temp tl=322.73611 K, iteration i=3
    max leaf temp tl=322.76919 K, iteration i=4
    max leaf temp tl=322.79117 K, iteration i=5
    max leaf temp tl=322.80588 K, iteration i=6
    max leaf temp tl=322.8158 K, iteration i=7
    max leaf temp tl=322.82251 K, iteration i=8
    max leaf temp tl=322.82706 K, iteration i=9
    max leaf temp tl=322.83015 K, iteration i=10
    max leaf temp tl=322.83226 K, iteration i=11
    max leaf temp tl=322.83369 K, iteration i=12
    max leaf temp tl=322.83466 K, iteration i=13
    max leaf temp tl=322.83533 K, iteration i=14
    max leaf temp tl=322.83578 K, iteration i=15
    max leaf temp tl=322.83609 K, iteration i=16
    max leaf temp tl=322.8363 K, iteration i=17
Vegetation model:  Solving for Tl, Final residual = 0.023349938, Final relative residual = 7.2327486e-05, No Iterations 17
temperature parameters: max Tl = 322.84191, min T = 285.58775, max T = 334.79776
resistances: max rs = 2673.7505, max ra = 60.599057
DILUPBiCGStab:  Solving for epsilon, Initial residual = 0.18886256, Final residual = 0.00038505095, No Iterations 1
DILUPBiCGStab:  Solving for k, Initial residual = 0.22851575, Final residual = 0.00055154744, No Iterations 1

Internal iteration number: 7
DILUPBiCGStab:  Solving for Ux, Initial residual = 0.22769545, Final residual = 0.00075616071, No Iterations 2
DILUPBiCGStab:  Solving for Uy, Initial residual = 0.24263455, Final residual = 0.001202623, No Iterations 2
DILUPBiCGStab:  Solving for Uz, Initial residual = 0.36188454, Final residual = 0.0018680933, No Iterations 2
DILUPBiCGStab:  Solving for h, Initial residual = 0.075836636, Final residual = 0.0007058798, No Iterations 1
Min/max T:289.72516 335.75442
GAMG:  Solving for p_rgh, Initial residual = 0.55984959, Final residual = 0.0049331101, No Iterations 3
time step continuity errors : sum local = 0.0084813525, global = 0.0010327811, cumulative = -18.68053
DILUPBiCGStab:  Solving for w, Initial residual = 0.10303723, Final residual = 0.00085970857, No Iterations 4
bounding magU, min: 0 max: 75.743643 average: 18.066721
    max leaf temp tl=max(new_Tl) [0 0 0 1 0 0 0] 322.84191k, iteration i=0
    max leaf temp tl=318.14914 K, iteration i=1
    max leaf temp tl=318.2404 K, iteration i=2
    max leaf temp tl=318.29852 K, iteration i=3
    max leaf temp tl=318.33642 K, iteration i=4
    max leaf temp tl=318.36151 K, iteration i=5
    max leaf temp tl=318.3783 K, iteration i=6
    max leaf temp tl=318.38961 K, iteration i=7
    max leaf temp tl=318.39727 K, iteration i=8
    max leaf temp tl=318.40247 K, iteration i=9
    max leaf temp tl=318.40602 K, iteration i=10
    max leaf temp tl=318.40843 K, iteration i=11
    max leaf temp tl=318.41008 K, iteration i=12
    max leaf temp tl=318.41121 K, iteration i=13
    max leaf temp tl=318.41198 K, iteration i=14
    max leaf temp tl=318.41251 K, iteration i=15
    max leaf temp tl=318.41287 K, iteration i=16
Vegetation model:  Solving for Tl, Final residual = 0.027791712, Final relative residual = 8.7282001e-05, No Iterations 16
temperature parameters: max Tl = 318.42376, min T = 289.72516, max T = 335.75442
resistances: max rs = 2575.3955, max ra = 53.393381
DILUPBiCGStab:  Solving for epsilon, Initial residual = 0.1562931, Final residual = 0.00029489395, No Iterations 1
DILUPBiCGStab:  Solving for k, Initial residual = 0.19747429, Final residual = 0.0004341458, No Iterations 1

Internal iteration number: 8
DILUPBiCGStab:  Solving for Ux, Initial residual = 0.18542263, Final residual = 0.00061761282, No Iterations 2
DILUPBiCGStab:  Solving for Uy, Initial residual = 0.21777786, Final residual = 0.001040005, No Iterations 2
DILUPBiCGStab:  Solving for Uz, Initial residual = 0.43356271, Final residual = 0.0020735196, No Iterations 2
DILUPBiCGStab:  Solving for h, Initial residual = 0.0698549, Final residual = 9.0567905e-05, No Iterations 2
Min/max T:291.70821 335.74201
GAMG:  Solving for p_rgh, Initial residual = 0.57706227, Final residual = 0.0020392147, No Iterations 5
time step continuity errors : sum local = 0.0032205925, global = 0.00040336998, cumulative = -18.680127
DILUPBiCGStab:  Solving for w, Initial residual = 0.08293658, Final residual = 4.9496415e-05, No Iterations 6
bounding magU, min: 0 max: 75.298491 average: 17.619687
    max leaf temp tl=max(new_Tl) [0 0 0 1 0 0 0] 318.42376k, iteration i=0
    max leaf temp tl=319.16814 K, iteration i=1
    max leaf temp tl=319.15023 K, iteration i=2
    max leaf temp tl=319.1377 K, iteration i=3
    max leaf temp tl=319.12898 K, iteration i=4
    max leaf temp tl=319.12295 K, iteration i=5
    max leaf temp tl=319.11878 K, iteration i=6
    max leaf temp tl=319.11592 K, iteration i=7
    max leaf temp tl=319.11394 K, iteration i=8
    max leaf temp tl=319.11259 K, iteration i=9
    max leaf temp tl=319.11165 K, iteration i=10
    max leaf temp tl=319.11101 K, iteration i=11
    max leaf temp tl=319.11057 K, iteration i=12
    max leaf temp tl=319.11027 K, iteration i=13
    max leaf temp tl=319.11007 K, iteration i=14
    max leaf temp tl=319.10992 K, iteration i=15
    max leaf temp tl=319.10983 K, iteration i=16
    max leaf temp tl=319.10976 K, iteration i=17
Vegetation model:  Solving for Tl, Final residual = 0.022155957, Final relative residual = 6.9430521e-05, No Iterations 17
temperature parameters: max Tl = 319.1075, min T = 291.70823, max T = 335.74201
resistances: max rs = 2698.1568, max ra = 53.275469
DILUPBiCGStab:  Solving for epsilon, Initial residual = 0.14125184, Final residual = 0.00025933622, No Iterations 1
DILUPBiCGStab:  Solving for k, Initial residual = 0.18193614, Final residual = 0.00038032442, No Iterations 1

Internal iteration number: 9
DILUPBiCGStab:  Solving for Ux, Initial residual = 0.15564202, Final residual = 0.0014630108, No Iterations 2
DILUPBiCGStab:  Solving for Uy, Initial residual = 0.19064982, Final residual = 0.00086417514, No Iterations 2
DILUPBiCGStab:  Solving for Uz, Initial residual = 0.2527154, Final residual = 0.00093709948, No Iterations 2
DILUPBiCGStab:  Solving for h, Initial residual = 0.069887688, Final residual = 0.00064836356, No Iterations 1
Min/max T:295.62165 335.06923
GAMG:  Solving for p_rgh, Initial residual = 0.52509342, Final residual = 0.004148478, No Iterations 3
time step continuity errors : sum local = 0.0043975616, global = -0.00044640391, cumulative = -18.680573
DILUPBiCGStab:  Solving for w, Initial residual = 0.065374864, Final residual = 0.0006322012, No Iterations 3
bounding magU, min: 0 max: 73.443924 average: 15.778
    max leaf temp tl=max(new_Tl) [0 0 0 1 0 0 0] 319.1075k, iteration i=0
    max leaf temp tl=324.59164 K, iteration i=1
    max leaf temp tl=324.4639 K, iteration i=2
    max leaf temp tl=324.36584 K, iteration i=3
    max leaf temp tl=324.3048 K, iteration i=4
    max leaf temp tl=324.26294 K, iteration i=5
    max leaf temp tl=324.23314 K, iteration i=6
    max leaf temp tl=324.21219 K, iteration i=7
    max leaf temp tl=324.19759 K, iteration i=8
    max leaf temp tl=324.1875 K, iteration i=9
    max leaf temp tl=324.18053 K, iteration i=10
    max leaf temp tl=324.17575 K, iteration i=11
    max leaf temp tl=324.17247 K, iteration i=12
    max leaf temp tl=324.17022 K, iteration i=13
    max leaf temp tl=324.16869 K, iteration i=14
    max leaf temp tl=324.16764 K, iteration i=15
    max leaf temp tl=324.16692 K, iteration i=16
    max leaf temp tl=324.16643 K, iteration i=17
Vegetation model:  Solving for Tl, Final residual = 0.028758728, Final relative residual = 8.8715936e-05, No Iterations 17
temperature parameters: max Tl = 324.15275, min T = 296.46149, max T = 335.06923
resistances: max rs = 2929.462, max ra = 99.762477
DILUPBiCGStab:  Solving for epsilon, Initial residual = 0.11809399, Final residual = 0.00021832581, No Iterations 1
DILUPBiCGStab:  Solving for k, Initial residual = 0.14661393, Final residual = 0.0003299583, No Iterations 1

Internal iteration number: 10
DILUPBiCGStab:  Solving for Ux, Initial residual = 0.11860734, Final residual = 0.00055647049, No Iterations 2
DILUPBiCGStab:  Solving for Uy, Initial residual = 0.16196461, Final residual = 0.00066097863, No Iterations 2
DILUPBiCGStab:  Solving for Uz, Initial residual = 0.31591694, Final residual = 0.0015015158, No Iterations 2
DILUPBiCGStab:  Solving for h, Initial residual = 0.065061061, Final residual = 0.00061898967, No Iterations 1
Min/max T:295.00025 332.68276
GAMG:  Solving for p_rgh, Initial residual = 0.54663122, Final residual = 0.0047261115, No Iterations 4
time step continuity errors : sum local = 0.0044382218, global = -0.00020931219, cumulative = -18.680782
DILUPBiCGStab:  Solving for w, Initial residual = 0.063353032, Final residual = 0.00056819876, No Iterations 3
bounding magU, min: 0 max: 71.825361 average: 15.4221
    max leaf temp tl=max(new_Tl) [0 0 0 1 0 0 0] 324.15275k, iteration i=0
    max leaf temp tl=322.68671 K, iteration i=1
    max leaf temp tl=322.70394 K, iteration i=2
    max leaf temp tl=322.71556 K, iteration i=3
    max leaf temp tl=322.72343 K, iteration i=4
    max leaf temp tl=322.7288 K, iteration i=5
    max leaf temp tl=322.73247 K, iteration i=6
    max leaf temp tl=322.73498 K, iteration i=7
    max leaf temp tl=322.7367 K, iteration i=8
    max leaf temp tl=322.73788 K, iteration i=9
    max leaf temp tl=322.73869 K, iteration i=10
    max leaf temp tl=322.73925 K, iteration i=11
    max leaf temp tl=322.73963 K, iteration i=12
    max leaf temp tl=322.7399 K, iteration i=13
    max leaf temp tl=322.74008 K, iteration i=14
    max leaf temp tl=322.7402 K, iteration i=15
Vegetation model:  Solving for Tl, Final residual = 0.031229748, Final relative residual = 9.6764356e-05, No Iterations 15
temperature parameters: max Tl = 322.74506, min T = 295.00025, max T = 332.68255
resistances: max rs = 2859.4721, max ra = 108.88465
DILUPBiCGStab:  Solving for epsilon, Initial residual = 0.099609708, Final residual = 0.00019163231, No Iterations 1
DILUPBiCGStab:  Solving for k, Initial residual = 0.13227627, Final residual = 0.00031502826, No Iterations 1

Internal iteration number: 11
DILUPBiCGStab:  Solving for Ux, Initial residual = 0.10653688, Final residual = 0.00054584799, No Iterations 2
DILUPBiCGStab:  Solving for Uy, Initial residual = 0.15200631, Final residual = 0.00057083468, No Iterations 2
DILUPBiCGStab:  Solving for Uz, Initial residual = 0.18539285, Final residual = 0.00094669212, No Iterations 2
DILUPBiCGStab:  Solving for h, Initial residual = 0.065143744, Final residual = 0.00064467413, No Iterations 1
Min/max T:292.74655 331.37327
GAMG:  Solving for p_rgh, Initial residual = 0.44349123, Final residual = 0.0035314543, No Iterations 3
time step continuity errors : sum local = 0.0027707063, global = 0.00018237873, cumulative = -18.6806
DILUPBiCGStab:  Solving for w, Initial residual = 0.055482312, Final residual = 0.00051038084, No Iterations 3
bounding magU, min: 0 max: 68.047916 average: 14.470882
    max leaf temp tl=max(new_Tl) [0 0 0 1 0 0 0] 322.74506k, iteration i=0
    max leaf temp tl=320.39243 K, iteration i=1
    max leaf temp tl=320.42046 K, iteration i=2
    max leaf temp tl=320.43914 K, iteration i=3
    max leaf temp tl=320.45171 K, iteration i=4
    max leaf temp tl=320.46024 K, iteration i=5
    max leaf temp tl=320.46604 K, iteration i=6
    max leaf temp tl=320.47001 K, iteration i=7
    max leaf temp tl=320.47272 K, iteration i=8
    max leaf temp tl=320.47459 K, iteration i=9
    max leaf temp tl=320.47587 K, iteration i=10
    max leaf temp tl=320.47675 K, iteration i=11
    max leaf temp tl=320.47735 K, iteration i=12
    max leaf temp tl=320.47777 K, iteration i=13
    max leaf temp tl=320.47805 K, iteration i=14
    max leaf temp tl=320.47825 K, iteration i=15
    max leaf temp tl=320.47838 K, iteration i=16
Vegetation model:  Solving for Tl, Final residual = 0.022502363, Final relative residual = 7.0214918e-05, No Iterations 16
temperature parameters: max Tl = 320.48391, min T = 292.74655, max T = 331.37327
resistances: max rs = 2720.5727, max ra = 55.764148
DILUPBiCGStab:  Solving for epsilon, Initial residual = 0.087687173, Final residual = 0.00016797821, No Iterations 1
DILUPBiCGStab:  Solving for k, Initial residual = 0.12371027, Final residual = 0.00028410803, No Iterations 1

Internal iteration number: 12
DILUPBiCGStab:  Solving for Ux, Initial residual = 0.093580957, Final residual = 0.00047212109, No Iterations 2
DILUPBiCGStab:  Solving for Uy, Initial residual = 0.14084154, Final residual = 0.00054177484, No Iterations 2
DILUPBiCGStab:  Solving for Uz, Initial residual = 0.19887098, Final residual = 0.0010401753, No Iterations 2
DILUPBiCGStab:  Solving for h, Initial residual = 0.065886433, Final residual = 9.1756585e-05, No Iterations 2
Min/max T:293.85351 332.13956
GAMG:  Solving for p_rgh, Initial residual = 0.43703112, Final residual = 0.0025338292, No Iterations 4
time step continuity errors : sum local = 0.0018163855, global = 0.00014747737, cumulative = -18.680452
DILUPBiCGStab:  Solving for w, Initial residual = 0.054602245, Final residual = 0.00045204927, No Iterations 3
bounding magU, min: 0 max: 64.15751 average: 13.640697
    max leaf temp tl=max(new_Tl) [0 0 0 1 0 0 0] 320.48391k, iteration i=0
    max leaf temp tl=321.73543 K, iteration i=1
    max leaf temp tl=321.71716 K, iteration i=2
    max leaf temp tl=321.70442 K, iteration i=3
    max leaf temp tl=321.69558 K, iteration i=4
    max leaf temp tl=321.68948 K, iteration i=5
    max leaf temp tl=321.68528 K, iteration i=6
    max leaf temp tl=321.68239 K, iteration i=7
    max leaf temp tl=321.6804 K, iteration i=8
    max leaf temp tl=321.67904 K, iteration i=9
    max leaf temp tl=321.67811 K, iteration i=10
    max leaf temp tl=321.67747 K, iteration i=11
    max leaf temp tl=321.67704 K, iteration i=12
    max leaf temp tl=321.67674 K, iteration i=13
    max leaf temp tl=321.67653 K, iteration i=14
    max leaf temp tl=321.67639 K, iteration i=15
    max leaf temp tl=321.67629 K, iteration i=16
Vegetation model:  Solving for Tl, Final residual = 0.028643611, Final relative residual = 8.9044829e-05, No Iterations 16
temperature parameters: max Tl = 321.6733, min T = 293.85354, max T = 332.13956
resistances: max rs = 2718.5385, max ra = 69.812105
DILUPBiCGStab:  Solving for epsilon, Initial residual = 0.079382129, Final residual = 0.000149194, No Iterations 1
DILUPBiCGStab:  Solving for k, Initial residual = 0.11451492, Final residual = 0.00025592997, No Iterations 1

Internal iteration number: 13
DILUPBiCGStab:  Solving for Ux, Initial residual = 0.08766924, Final residual = 0.00041172593, No Iterations 2
DILUPBiCGStab:  Solving for Uy, Initial residual = 0.13571076, Final residual = 0.00050712931, No Iterations 2
DILUPBiCGStab:  Solving for Uz, Initial residual = 0.12545379, Final residual = 0.00053517345, No Iterations 2
DILUPBiCGStab:  Solving for h, Initial residual = 0.066185824, Final residual = 9.4649774e-05, No Iterations 2
Min/max T:294.5487 331.89308
GAMG:  Solving for p_rgh, Initial residual = 0.43564736, Final residual = 0.0031933875, No Iterations 3
time step continuity errors : sum local = 0.001709289, global = -6.3184007e-05, cumulative = -18.680516
DILUPBiCGStab:  Solving for w, Initial residual = 0.051473239, Final residual = 0.00042071957, No Iterations 3
bounding magU, min: 0 max: 59.529759 average: 12.946082
    max leaf temp tl=max(new_Tl) [0 0 0 1 0 0 0] 321.6733k, iteration i=0
    max leaf temp tl=322.71202 K, iteration i=1
    max leaf temp tl=322.69248 K, iteration i=2
    max leaf temp tl=322.67898 K, iteration i=3
    max leaf temp tl=322.66969 K, iteration i=4
    max leaf temp tl=322.66332 K, iteration i=5
    max leaf temp tl=322.65897 K, iteration i=6
    max leaf temp tl=322.656 K, iteration i=7
    max leaf temp tl=322.65397 K, iteration i=8
    max leaf temp tl=322.65259 K, iteration i=9
    max leaf temp tl=322.65165 K, iteration i=10
    max leaf temp tl=322.65101 K, iteration i=11
    max leaf temp tl=322.65057 K, iteration i=12
    max leaf temp tl=322.65028 K, iteration i=13
    max leaf temp tl=322.65007 K, iteration i=14
    max leaf temp tl=322.64994 K, iteration i=15
    max leaf temp tl=322.64984 K, iteration i=16
Vegetation model:  Solving for Tl, Final residual = 0.028187022, Final relative residual = 8.7361026e-05, No Iterations 16
temperature parameters: max Tl = 322.64759, min T = 294.5487, max T = 331.89308
resistances: max rs = 2742.1747, max ra = 102.6314
DILUPBiCGStab:  Solving for epsilon, Initial residual = 0.068721723, Final residual = 0.00013241419, No Iterations 1
DILUPBiCGStab:  Solving for k, Initial residual = 0.10203991, Final residual = 0.00022886316, No Iterations 1

Internal iteration number: 14
DILUPBiCGStab:  Solving for Ux, Initial residual = 0.080384243, Final residual = 0.0003257202, No Iterations 2
DILUPBiCGStab:  Solving for Uy, Initial residual = 0.12599634, Final residual = 0.00043741166, No Iterations 2
DILUPBiCGStab:  Solving for Uz, Initial residual = 0.13820714, Final residual = 0.0011365618, No Iterations 2
DILUPBiCGStab:  Solving for h, Initial residual = 0.066472813, Final residual = 9.9455419e-05, No Iterations 2
Min/max T:294.15152 331.36819
GAMG:  Solving for p_rgh, Initial residual = 0.43848102, Final residual = 0.0016228917, No Iterations 4
time step continuity errors : sum local = 0.0007950497, global = -8.3489335e-05, cumulative = -18.680599
DILUPBiCGStab:  Solving for w, Initial residual = 0.049875968, Final residual = 0.00039807702, No Iterations 3
bounding magU, min: 0 max: 55.246718 average: 12.422708
    max leaf temp tl=max(new_Tl) [0 0 0 1 0 0 0] 322.64759k, iteration i=0
    max leaf temp tl=321.18351 K, iteration i=1
    max leaf temp tl=321.20741 K, iteration i=2
    max leaf temp tl=321.22338 K, iteration i=3
    max leaf temp tl=321.23411 K, iteration i=4
    max leaf temp tl=321.24135 K, iteration i=5
    max leaf temp tl=321.24625 K, iteration i=6
    max leaf temp tl=321.24957 K, iteration i=7
    max leaf temp tl=321.25182 K, iteration i=8
    max leaf temp tl=321.25335 K, iteration i=9
    max leaf temp tl=321.25438 K, iteration i=10
    max leaf temp tl=321.25509 K, iteration i=11
    max leaf temp tl=321.25557 K, iteration i=12
    max leaf temp tl=321.25589 K, iteration i=13
    max leaf temp tl=321.25611 K, iteration i=14
    max leaf temp tl=321.25626 K, iteration i=15
Vegetation model:  Solving for Tl, Final residual = 0.024286804, Final relative residual = 7.5599471e-05, No Iterations 15
temperature parameters: max Tl = 321.25986, min T = 294.15152, max T = 331.36819
resistances: max rs = 2718.6092, max ra = 74.164808
DILUPBiCGStab:  Solving for epsilon, Initial residual = 0.063139616, Final residual = 0.00011978996, No Iterations 1
DILUPBiCGStab:  Solving for k, Initial residual = 0.093682489, Final residual = 0.00020972949, No Iterations 1

Internal iteration number: 15
DILUPBiCGStab:  Solving for Ux, Initial residual = 0.076247307, Final residual = 0.00047608603, No Iterations 2
DILUPBiCGStab:  Solving for Uy, Initial residual = 0.12164656, Final residual = 0.00042212009, No Iterations 2
DILUPBiCGStab:  Solving for Uz, Initial residual = 0.11390975, Final residual = 0.0004769252, No Iterations 2
DILUPBiCGStab:  Solving for h, Initial residual = 0.067902428, Final residual = 0.00010958901, No Iterations 2
Min/max T:292.94385 331.0767
GAMG:  Solving for p_rgh, Initial residual = 0.37839258, Final residual = 0.0018812586, No Iterations 3
time step continuity errors : sum local = 0.00085979987, global = 2.4166789e-05, cumulative = -18.680575
DILUPBiCGStab:  Solving for w, Initial residual = 0.046713904, Final residual = 0.00037237436, No Iterations 3
bounding magU, min: 0 max: 52.840578 average: 11.796934
    max leaf temp tl=max(new_Tl) [0 0 0 1 0 0 0] 321.25986k, iteration i=0
    max leaf temp tl=320.04624 K, iteration i=1
    max leaf temp tl=320.0675 K, iteration i=2
    max leaf temp tl=320.08176 K, iteration i=3
    max leaf temp tl=320.09139 K, iteration i=4
    max leaf temp tl=320.0979 K, iteration i=5
    max leaf temp tl=320.10233 K, iteration i=6
    max leaf temp tl=320.10535 K, iteration i=7
    max leaf temp tl=320.1074 K, iteration i=8
    max leaf temp tl=320.1088 K, iteration i=9
    max leaf temp tl=320.10975 K, iteration i=10
    max leaf temp tl=320.11041 K, iteration i=11
    max leaf temp tl=320.11085 K, iteration i=12
    max leaf temp tl=320.11115 K, iteration i=13
    max leaf temp tl=320.11136 K, iteration i=14
    max leaf temp tl=320.1115 K, iteration i=15
Vegetation model:  Solving for Tl, Final residual = 0.025579248, Final relative residual = 7.9907305e-05, No Iterations 15
temperature parameters: max Tl = 320.11552, min T = 292.94385, max T = 331.0767
resistances: max rs = 2722.5858, max ra = 108.79258
DILUPBiCGStab:  Solving for epsilon, Initial residual = 0.059431178, Final residual = 0.00011042922, No Iterations 1
DILUPBiCGStab:  Solving for k, Initial residual = 0.086198499, Final residual = 0.00019018562, No Iterations 1

Internal iteration number: 16
DILUPBiCGStab:  Solving for Ux, Initial residual = 0.07501262, Final residual = 0.00044552393, No Iterations 2
DILUPBiCGStab:  Solving for Uy, Initial residual = 0.11837178, Final residual = 0.00041506582, No Iterations 2
DILUPBiCGStab:  Solving for Uz, Initial residual = 0.1137007, Final residual = 0.00097793491, No Iterations 2
DILUPBiCGStab:  Solving for h, Initial residual = 0.068614199, Final residual = 0.0001226372, No Iterations 2
Min/max T:294.54838 331.35425
GAMG:  Solving for p_rgh, Initial residual = 0.35930069, Final residual = 0.0027742041, No Iterations 3
time step continuity errors : sum local = 0.0011795907, global = 3.9471157e-05, cumulative = -18.680536
DILUPBiCGStab:  Solving for w, Initial residual = 0.044563333, Final residual = 4.8065301e-05, No Iterations 5
bounding magU, min: 0 max: 51.087822 average: 11.219081
    max leaf temp tl=max(new_Tl) [0 0 0 1 0 0 0] 320.11552k, iteration i=0
    max leaf temp tl=320.23287 K, iteration i=1
    max leaf temp tl=320.22306 K, iteration i=2
    max leaf temp tl=320.2163 K, iteration i=3
    max leaf temp tl=320.21165 K, iteration i=4
    max leaf temp tl=320.20846 K, iteration i=5
    max leaf temp tl=320.20627 K, iteration i=6
    max leaf temp tl=320.20478 K, iteration i=7
    max leaf temp tl=320.20375 K, iteration i=8
    max leaf temp tl=320.20305 K, iteration i=9
    max leaf temp tl=320.20257 K, iteration i=10
    max leaf temp tl=320.20224 K, iteration i=11
    max leaf temp tl=320.20202 K, iteration i=12
    max leaf temp tl=320.20187 K, iteration i=13
    max leaf temp tl=320.20176 K, iteration i=14
    max leaf temp tl=320.20169 K, iteration i=15
Vegetation model:  Solving for Tl, Final residual = 0.028231127, Final relative residual = 8.8166701e-05, No Iterations 15
temperature parameters: max Tl = 320.19963, min T = 294.54838, max T = 331.35425
resistances: max rs = 2792.0387, max ra = 79.737816
DILUPBiCGStab:  Solving for epsilon, Initial residual = 0.056937522, Final residual = 0.00010132348, No Iterations 1
DILUPBiCGStab:  Solving for k, Initial residual = 0.080377872, Final residual = 0.00017191322, No Iterations 1

Internal iteration number: 17
DILUPBiCGStab:  Solving for Ux, Initial residual = 0.077282656, Final residual = 0.00041206262, No Iterations 2
DILUPBiCGStab:  Solving for Uy, Initial residual = 0.11634495, Final residual = 0.00040364494, No Iterations 2
DILUPBiCGStab:  Solving for Uz, Initial residual = 0.096598171, Final residual = 0.00087570828, No Iterations 2
DILUPBiCGStab:  Solving for h, Initial residual = 0.068774081, Final residual = 0.00013915272, No Iterations 2
Min/max T:294.24357 331.48796
GAMG:  Solving for p_rgh, Initial residual = 0.37383055, Final residual = 0.0014945023, No Iterations 3
time step continuity errors : sum local = 0.00052571154, global = 4.2323466e-05, cumulative = -18.680493
DILUPBiCGStab:  Solving for w, Initial residual = 0.042751263, Final residual = 0.00038835974, No Iterations 4
bounding magU, min: 0 max: 49.916082 average: 10.740501
    max leaf temp tl=max(new_Tl) [0 0 0 1 0 0 0] 320.19963k, iteration i=0
    max leaf temp tl=320.63991 K, iteration i=1
    max leaf temp tl=320.63199 K, iteration i=2
    max leaf temp tl=320.62656 K, iteration i=3
    max leaf temp tl=320.62284 K, iteration i=4
    max leaf temp tl=320.62029 K, iteration i=5
    max leaf temp tl=320.61856 K, iteration i=6
    max leaf temp tl=320.61737 K, iteration i=7
    max leaf temp tl=320.61656 K, iteration i=8
    max leaf temp tl=320.61601 K, iteration i=9
    max leaf temp tl=320.61563 K, iteration i=10
    max leaf temp tl=320.61537 K, iteration i=11
    max leaf temp tl=320.6152 K, iteration i=12
    max leaf temp tl=320.61508 K, iteration i=13
    max leaf temp tl=320.615 K, iteration i=14
Vegetation model:  Solving for Tl, Final residual = 0.030858652, Final relative residual = 9.6248311e-05, No Iterations 14
temperature parameters: max Tl = 320.61288, min T = 294.24357, max T = 331.48796
resistances: max rs = 2869.5389, max ra = 103.39086
DILUPBiCGStab:  Solving for epsilon, Initial residual = 0.055115911, Final residual = 9.254651e-05, No Iterations 1
DILUPBiCGStab:  Solving for k, Initial residual = 0.074946521, Final residual = 0.00015557636, No Iterations 1

Internal iteration number: 18
DILUPBiCGStab:  Solving for Ux, Initial residual = 0.07590024, Final residual = 0.00041942806, No Iterations 2
DILUPBiCGStab:  Solving for Uy, Initial residual = 0.11316799, Final residual = 0.00043306381, No Iterations 2
DILUPBiCGStab:  Solving for Uz, Initial residual = 0.098759678, Final residual = 0.00020718761, No Iterations 2
DILUPBiCGStab:  Solving for h, Initial residual = 0.068808168, Final residual = 0.00016504589, No Iterations 2
Min/max T:293.94179 331.34961
GAMG:  Solving for p_rgh, Initial residual = 0.37457181, Final residual = 0.0018024166, No Iterations 3
time step continuity errors : sum local = 0.00057831741, global = -7.5701708e-05, cumulative = -18.680569
DILUPBiCGStab:  Solving for w, Initial residual = 0.041468624, Final residual = 0.00030070827, No Iterations 3
bounding magU, min: 0 max: 48.799793 average: 10.312991
    max leaf temp tl=max(new_Tl) [0 0 0 1 0 0 0] 320.61288k, iteration i=0
    max leaf temp tl=320.37775 K, iteration i=1
    max leaf temp tl=320.37669 K, iteration i=2
    max leaf temp tl=320.37597 K, iteration i=3
    max leaf temp tl=320.37548 K, iteration i=4
    max leaf temp tl=320.37514 K, iteration i=5
    max leaf temp tl=320.37491 K, iteration i=6
    max leaf temp tl=320.37475 K, iteration i=7
    max leaf temp tl=320.37465 K, iteration i=8
    max leaf temp tl=320.37457 K, iteration i=9
    max leaf temp tl=320.37452 K, iteration i=10
    max leaf temp tl=320.37449 K, iteration i=11
    max leaf temp tl=320.37447 K, iteration i=12
    max leaf temp tl=320.37445 K, iteration i=13
    max leaf temp tl=320.37444 K, iteration i=14
Vegetation model:  Solving for Tl, Final residual = 0.023695288, Final relative residual = 7.3961233e-05, No Iterations 14
temperature parameters: max Tl = 320.37414, min T = 293.94179, max T = 331.34961
resistances: max rs = 2929.7675, max ra = 124.73821
DILUPBiCGStab:  Solving for epsilon, Initial residual = 0.052925502, Final residual = 8.3727792e-05, No Iterations 1
DILUPBiCGStab:  Solving for k, Initial residual = 0.069561057, Final residual = 0.00013966911, No Iterations 1

Internal iteration number: 19
DILUPBiCGStab:  Solving for Ux, Initial residual = 0.072252584, Final residual = 0.00046793888, No Iterations 2
DILUPBiCGStab:  Solving for Uy, Initial residual = 0.11142303, Final residual = 0.00047805477, No Iterations 2
DILUPBiCGStab:  Solving for Uz, Initial residual = 0.10033846, Final residual = 0.00046788566, No Iterations 2
DILUPBiCGStab:  Solving for h, Initial residual = 0.068858278, Final residual = 0.00022231127, No Iterations 2
Min/max T:294.74187 331.25481
GAMG:  Solving for p_rgh, Initial residual = 0.3524334, Final residual = 0.001161712, No Iterations 3
time step continuity errors : sum local = 0.00034762627, global = -7.9179027e-05, cumulative = -18.680648
DILUPBiCGStab:  Solving for w, Initial residual = 0.040709467, Final residual = 0.00029354559, No Iterations 3
bounding magU, min: 0 max: 47.425112 average: 9.9039831
    max leaf temp tl=max(new_Tl) [0 0 0 1 0 0 0] 320.37414k, iteration i=0
    max leaf temp tl=320.00783 K, iteration i=1
    max leaf temp tl=320.01497 K, iteration i=2
    max leaf temp tl=320.01981 K, iteration i=3
    max leaf temp tl=320.02309 K, iteration i=4
    max leaf temp tl=320.02531 K, iteration i=5
    max leaf temp tl=320.02683 K, iteration i=6
    max leaf temp tl=320.02785 K, iteration i=7
    max leaf temp tl=320.02855 K, iteration i=8
    max leaf temp tl=320.02903 K, iteration i=9
    max leaf temp tl=320.02935 K, iteration i=10
    max leaf temp tl=320.02958 K, iteration i=11
    max leaf temp tl=320.02973 K, iteration i=12
    max leaf temp tl=320.02983 K, iteration i=13
    max leaf temp tl=320.0299 K, iteration i=14
Vegetation model:  Solving for Tl, Final residual = 0.024295066, Final relative residual = 7.5914989e-05, No Iterations 14
temperature parameters: max Tl = 320.03163, min T = 294.74187, max T = 331.25481
resistances: max rs = 2961.1414, max ra = 186.63433
DILUPBiCGStab:  Solving for epsilon, Initial residual = 0.050599194, Final residual = 7.6124486e-05, No Iterations 1
DILUPBiCGStab:  Solving for k, Initial residual = 0.064399127, Final residual = 0.00012545599, No Iterations 1

Internal iteration number: 20
DILUPBiCGStab:  Solving for Ux, Initial residual = 0.069208936, Final residual = 0.00050562555, No Iterations 2
DILUPBiCGStab:  Solving for Uy, Initial residual = 0.10980784, Final residual = 0.00047441111, No Iterations 2
DILUPBiCGStab:  Solving for Uz, Initial residual = 0.10263128, Final residual = 0.00084859243, No Iterations 3
DILUPBiCGStab:  Solving for h, Initial residual = 0.069187194, Final residual = 0.00030759273, No Iterations 2
Min/max T:295.01524 331.04562
GAMG:  Solving for p_rgh, Initial residual = 0.3348341, Final residual = 0.0010096832, No Iterations 3
time step continuity errors : sum local = 0.00028684331, global = 2.9944235e-05, cumulative = -18.680618
DILUPBiCGStab:  Solving for w, Initial residual = 0.04023372, Final residual = 0.00029166017, No Iterations 3
bounding magU, min: 0 max: 45.91325 average: 9.5329185
    max leaf temp tl=max(new_Tl) [0 0 0 1 0 0 0] 320.03163k, iteration i=0
    max leaf temp tl=319.7908 K, iteration i=1
    max leaf temp tl=319.79152 K, iteration i=2
    max leaf temp tl=319.792 K, iteration i=3
    max leaf temp tl=319.79233 K, iteration i=4
    max leaf temp tl=319.79256 K, iteration i=5
    max leaf temp tl=319.79271 K, iteration i=6
    max leaf temp tl=319.79282 K, iteration i=7
    max leaf temp tl=319.79289 K, iteration i=8
    max leaf temp tl=319.79294 K, iteration i=9
    max leaf temp tl=319.79297 K, iteration i=10
    max leaf temp tl=319.79299 K, iteration i=11
    max leaf temp tl=319.79301 K, iteration i=12
    max leaf temp tl=319.79302 K, iteration i=13
    max leaf temp tl=319.79302 K, iteration i=14
Vegetation model:  Solving for Tl, Final residual = 0.025823792, Final relative residual = 8.0751581e-05, No Iterations 14
temperature parameters: max Tl = 319.79405, min T = 295.01524, max T = 331.04562
resistances: max rs = 2982.0394, max ra = 142.23137
DILUPBiCGStab:  Solving for epsilon, Initial residual = 0.048252707, Final residual = 7.0058775e-05, No Iterations 1
DILUPBiCGStab:  Solving for k, Initial residual = 0.059678014, Final residual = 0.00011343876, No Iterations 1

Internal iteration number: 21
DILUPBiCGStab:  Solving for Ux, Initial residual = 0.067733088, Final residual = 0.00042770154, No Iterations 2
DILUPBiCGStab:  Solving for Uy, Initial residual = 0.10803611, Final residual = 0.00051728283, No Iterations 2
DILUPBiCGStab:  Solving for Uz, Initial residual = 0.097468787, Final residual = 0.00031639305, No Iterations 2
DILUPBiCGStab:  Solving for h, Initial residual = 0.06928111, Final residual = 0.0002893705, No Iterations 2
Min/max T:294.19371 330.83311
GAMG:  Solving for p_rgh, Initial residual = 0.33117391, Final residual = 0.0028301779, No Iterations 2
time step continuity errors : sum local = 0.00073179468, global = 0.00016606008, cumulative = -18.680452
DILUPBiCGStab:  Solving for w, Initial residual = 0.040006445, Final residual = 0.00028643413, No Iterations 3
bounding magU, min: 0 max: 43.874523 average: 9.1976
    max leaf temp tl=max(new_Tl) [0 0 0 1 0 0 0] 319.79405k, iteration i=0
    max leaf temp tl=319.69113 K, iteration i=1
    max leaf temp tl=319.69325 K, iteration i=2
    max leaf temp tl=319.69469 K, iteration i=3
    max leaf temp tl=319.69566 K, iteration i=4
    max leaf temp tl=319.69632 K, iteration i=5
    max leaf temp tl=319.69677 K, iteration i=6
    max leaf temp tl=319.69708 K, iteration i=7
    max leaf temp tl=319.69729 K, iteration i=8
    max leaf temp tl=319.69743 K, iteration i=9
    max leaf temp tl=319.69752 K, iteration i=10
    max leaf temp tl=319.69759 K, iteration i=11
    max leaf temp tl=319.69763 K, iteration i=12
    max leaf temp tl=319.69766 K, iteration i=13
    max leaf temp tl=319.69768 K, iteration i=14
Vegetation model:  Solving for Tl, Final residual = 0.022715151, Final relative residual = 7.1051974e-05, No Iterations 14
temperature parameters: max Tl = 319.69815, min T = 294.19371, max T = 330.83311
resistances: max rs = 2996.1589, max ra = 82.964373
DILUPBiCGStab:  Solving for epsilon, Initial residual = 0.045880719, Final residual = 6.4985689e-05, No Iterations 1
DILUPBiCGStab:  Solving for k, Initial residual = 0.055238202, Final residual = 0.0001028235, No Iterations 1

Internal iteration number: 22
DILUPBiCGStab:  Solving for Ux, Initial residual = 0.065225376, Final residual = 0.00033906461, No Iterations 2
DILUPBiCGStab:  Solving for Uy, Initial residual = 0.10455165, Final residual = 0.00048744438, No Iterations 2
DILUPBiCGStab:  Solving for Uz, Initial residual = 0.095450142, Final residual = 0.0003300878, No Iterations 2
DILUPBiCGStab:  Solving for h, Initial residual = 0.0686305, Final residual = 0.00027410226, No Iterations 2
Min/max T:295.59821 330.62088
GAMG:  Solving for p_rgh, Initial residual = 0.32629041, Final residual = 0.0028075221, No Iterations 2
time step continuity errors : sum local = 0.00066166323, global = 0.00018319933, cumulative = -18.680269
DILUPBiCGStab:  Solving for w, Initial residual = 0.039404104, Final residual = 0.0002714251, No Iterations 3
bounding magU, min: 0 max: 42.049647 average: 8.8778581
    max leaf temp tl=max(new_Tl) [0 0 0 1 0 0 0] 319.69815k, iteration i=0
    max leaf temp tl=319.33506 K, iteration i=1
    max leaf temp tl=319.34277 K, iteration i=2
    max leaf temp tl=319.34794 K, iteration i=3
    max leaf temp tl=319.35141 K, iteration i=4
    max leaf temp tl=319.35375 K, iteration i=5
    max leaf temp tl=319.35532 K, iteration i=6
    max leaf temp tl=319.35638 K, iteration i=7
    max leaf temp tl=319.3571 K, iteration i=8
    max leaf temp tl=319.35758 K, iteration i=9
    max leaf temp tl=319.3579 K, iteration i=10
    max leaf temp tl=319.35812 K, iteration i=11
    max leaf temp tl=319.35827 K, iteration i=12
    max leaf temp tl=319.35837 K, iteration i=13
Vegetation model:  Solving for Tl, Final residual = 0.03187794, Final relative residual = 9.9818708e-05, No Iterations 13
temperature parameters: max Tl = 319.36018, min T = 295.59821, max T = 330.62088
resistances: max rs = 3001.1108, max ra = 89.018325
DILUPBiCGStab:  Solving for epsilon, Initial residual = 0.043612075, Final residual = 6.0204224e-05, No Iterations 1
DILUPBiCGStab:  Solving for k, Initial residual = 0.051098961, Final residual = 9.3021429e-05, No Iterations 1

Internal iteration number: 23
DILUPBiCGStab:  Solving for Ux, Initial residual = 0.062136671, Final residual = 0.00027020853, No Iterations 2
DILUPBiCGStab:  Solving for Uy, Initial residual = 0.099852783, Final residual = 0.00043497839, No Iterations 2
DILUPBiCGStab:  Solving for Uz, Initial residual = 0.095007927, Final residual = 0.00032862217, No Iterations 2
DILUPBiCGStab:  Solving for h, Initial residual = 0.067469589, Final residual = 0.00029282564, No Iterations 2
Min/max T:295.98006 330.53983
GAMG:  Solving for p_rgh, Initial residual = 0.34013676, Final residual = 0.0027609991, No Iterations 2
time step continuity errors : sum local = 0.00055251298, global = 0.00011113308, cumulative = -18.680158
DILUPBiCGStab:  Solving for w, Initial residual = 0.038444168, Final residual = 0.00025477683, No Iterations 3
bounding magU, min: 0 max: 40.601768 average: 8.5690605
    max leaf temp tl=max(new_Tl) [0 0 0 1 0 0 0] 319.36018k, iteration i=0
    max leaf temp tl=319.07505 K, iteration i=1
    max leaf temp tl=319.08351 K, iteration i=2
    max leaf temp tl=319.08916 K, iteration i=3
    max leaf temp tl=319.09293 K, iteration i=4
    max leaf temp tl=319.09546 K, iteration i=5
    max leaf temp tl=319.09716 K, iteration i=6
    max leaf temp tl=319.09829 K, iteration i=7
    max leaf temp tl=319.09905 K, iteration i=8
    max leaf temp tl=319.09956 K, iteration i=9
    max leaf temp tl=319.0999 K, iteration i=10
    max leaf temp tl=319.10013 K, iteration i=11
    max leaf temp tl=319.10029 K, iteration i=12
    max leaf temp tl=319.10039 K, iteration i=13
Vegetation model:  Solving for Tl, Final residual = 0.029873263, Final relative residual = 9.361713e-05, No Iterations 13
temperature parameters: max Tl = 319.10204, min T = 295.98006, max T = 330.53983
resistances: max rs = 3004.8095, max ra = 126.5329
DILUPBiCGStab:  Solving for epsilon, Initial residual = 0.041438066, Final residual = 5.6093407e-05, No Iterations 1
DILUPBiCGStab:  Solving for k, Initial residual = 0.047067429, Final residual = 8.4104732e-05, No Iterations 1

Internal iteration number: 24
DILUPBiCGStab:  Solving for Ux, Initial residual = 0.058934494, Final residual = 0.00023338232, No Iterations 2
DILUPBiCGStab:  Solving for Uy, Initial residual = 0.095094496, Final residual = 0.00044562849, No Iterations 2
DILUPBiCGStab:  Solving for Uz, Initial residual = 0.093025498, Final residual = 0.00029429354, No Iterations 2
DILUPBiCGStab:  Solving for h, Initial residual = 0.067037471, Final residual = 0.00030682124, No Iterations 2
Min/max T:295.66679 330.27365
GAMG:  Solving for p_rgh, Initial residual = 0.3347806, Final residual = 0.0025536167, No Iterations 2
time step continuity errors : sum local = 0.00046127699, global = 4.668589e-05, cumulative = -18.680111
DILUPBiCGStab:  Solving for w, Initial residual = 0.037113313, Final residual = 0.00023619767, No Iterations 3
bounding magU, min: 0 max: 40.012022 average: 8.2961282
    max leaf temp tl=max(new_Tl) [0 0 0 1 0 0 0] 319.10204k, iteration i=0
    max leaf temp tl=318.49269 K, iteration i=1
    max leaf temp tl=318.5133 K, iteration i=2
    max leaf temp tl=318.52692 K, iteration i=3
    max leaf temp tl=318.53594 K, iteration i=4
    max leaf temp tl=318.54194 K, iteration i=5
    max leaf temp tl=318.54592 K, iteration i=6
    max leaf temp tl=318.54858 K, iteration i=7
    max leaf temp tl=318.55034 K, iteration i=8
    max leaf temp tl=318.55152 K, iteration i=9
    max leaf temp tl=318.55231 K, iteration i=10
    max leaf temp tl=318.55283 K, iteration i=11
    max leaf temp tl=318.55318 K, iteration i=12
    max leaf temp tl=318.55341 K, iteration i=13
    max leaf temp tl=318.55357 K, iteration i=14
Vegetation model:  Solving for Tl, Final residual = 0.024912561, Final relative residual = 7.8205249e-05, No Iterations 14
temperature parameters: max Tl = 318.55577, min T = 295.66679, max T = 330.27365
resistances: max rs = 2998.7307, max ra = 123.55905
DILUPBiCGStab:  Solving for epsilon, Initial residual = 0.03980976, Final residual = 5.2993722e-05, No Iterations 1
DILUPBiCGStab:  Solving for k, Initial residual = 0.043569688, Final residual = 7.6466305e-05, No Iterations 1

Internal iteration number: 25
DILUPBiCGStab:  Solving for Ux, Initial residual = 0.056388919, Final residual = 0.0002108732, No Iterations 2
DILUPBiCGStab:  Solving for Uy, Initial residual = 0.090434632, Final residual = 0.00042688268, No Iterations 2
DILUPBiCGStab:  Solving for Uz, Initial residual = 0.088075907, Final residual = 0.00027582533, No Iterations 2
DILUPBiCGStab:  Solving for h, Initial residual = 0.066210241, Final residual = 0.00033436002, No Iterations 2
Min/max T:296.02176 330.03123
GAMG:  Solving for p_rgh, Initial residual = 0.32392404, Final residual = 0.0022840071, No Iterations 2
time step continuity errors : sum local = 0.00037647179, global = 6.2790698e-05, cumulative = -18.680048
DILUPBiCGStab:  Solving for w, Initial residual = 0.035705715, Final residual = 0.00021691253, No Iterations 3
bounding magU, min: 0 max: 39.619871 average: 8.048467
    max leaf temp tl=max(new_Tl) [0 0 0 1 0 0 0] 318.55577k, iteration i=0
    max leaf temp tl=317.90871 K, iteration i=1
    max leaf temp tl=317.93226 K, iteration i=2
    max leaf temp tl=317.94774 K, iteration i=3
    max leaf temp tl=317.95794 K, iteration i=4
    max leaf temp tl=317.96469 K, iteration i=5
    max leaf temp tl=317.96916 K, iteration i=6
    max leaf temp tl=317.97211 K, iteration i=7
    max leaf temp tl=317.97408 K, iteration i=8
    max leaf temp tl=317.97538 K, iteration i=9
    max leaf temp tl=317.97624 K, iteration i=10
    max leaf temp tl=317.97682 K, iteration i=11
    max leaf temp tl=317.9772 K, iteration i=12
    max leaf temp tl=317.97745 K, iteration i=13
    max leaf temp tl=317.97762 K, iteration i=14
Vegetation model:  Solving for Tl, Final residual = 0.02276598, Final relative residual = 7.1596171e-05, No Iterations 14
temperature parameters: max Tl = 317.97978, min T = 296.02176, max T = 330.03123
resistances: max rs = 2992.6736, max ra = 94.947483
DILUPBiCGStab:  Solving for epsilon, Initial residual = 0.03861554, Final residual = 5.0469492e-05, No Iterations 1
DILUPBiCGStab:  Solving for k, Initial residual = 0.04065764, Final residual = 7.0361006e-05, No Iterations 1

Internal iteration number: 26
DILUPBiCGStab:  Solving for Ux, Initial residual = 0.054055639, Final residual = 0.00020181044, No Iterations 2
DILUPBiCGStab:  Solving for Uy, Initial residual = 0.085192597, Final residual = 0.00047776885, No Iterations 2
DILUPBiCGStab:  Solving for Uz, Initial residual = 0.083183897, Final residual = 0.00027580138, No Iterations 2
DILUPBiCGStab:  Solving for h, Initial residual = 0.065902143, Final residual = 0.00036315967, No Iterations 2
Min/max T:296.1976 329.83455
GAMG:  Solving for p_rgh, Initial residual = 0.30940779, Final residual = 0.0021198182, No Iterations 2
time step continuity errors : sum local = 0.00031759984, global = 7.4054823e-05, cumulative = -18.679974
DILUPBiCGStab:  Solving for w, Initial residual = 0.034291436, Final residual = 0.0002020571, No Iterations 3
bounding magU, min: 0 max: 38.834515 average: 7.8113953
    max leaf temp tl=max(new_Tl) [0 0 0 1 0 0 0] 317.97978k, iteration i=0
    max leaf temp tl=317.53435 K, iteration i=1
    max leaf temp tl=317.53315 K, iteration i=2
    max leaf temp tl=317.53234 K, iteration i=3
    max leaf temp tl=317.5318 K, iteration i=4
    max leaf temp tl=317.53145 K, iteration i=5
    max leaf temp tl=317.53121 K, iteration i=6
    max leaf temp tl=317.53105 K, iteration i=7
    max leaf temp tl=317.53094 K, iteration i=8
    max leaf temp tl=317.53087 K, iteration i=9
    max leaf temp tl=317.53082 K, iteration i=10
    max leaf temp tl=317.53079 K, iteration i=11
    max leaf temp tl=317.53077 K, iteration i=12
    max leaf temp tl=317.53076 K, iteration i=13
Vegetation model:  Solving for Tl, Final residual = 0.025324483, Final relative residual = 7.9754425e-05, No Iterations 13
temperature parameters: max Tl = 317.53056, min T = 296.1976, max T = 329.83455
resistances: max rs = 2986.336, max ra = 97.874825
DILUPBiCGStab:  Solving for epsilon, Initial residual = 0.037652373, Final residual = 4.8289759e-05, No Iterations 1
DILUPBiCGStab:  Solving for k, Initial residual = 0.038052165, Final residual = 6.4810722e-05, No Iterations 1

Internal iteration number: 27
DILUPBiCGStab:  Solving for Ux, Initial residual = 0.051894915, Final residual = 0.00019942786, No Iterations 2
DILUPBiCGStab:  Solving for Uy, Initial residual = 0.080064567, Final residual = 0.000569027, No Iterations 2
DILUPBiCGStab:  Solving for Uz, Initial residual = 0.079506617, Final residual = 0.00029712006, No Iterations 2
DILUPBiCGStab:  Solving for h, Initial residual = 0.065245686, Final residual = 0.00039457943, No Iterations 2
Min/max T:296.03476 329.7255
GAMG:  Solving for p_rgh, Initial residual = 0.31036876, Final residual = 0.0021359447, No Iterations 2
time step continuity errors : sum local = 0.00027573247, global = 3.5517498e-05, cumulative = -18.679939
DILUPBiCGStab:  Solving for w, Initial residual = 0.032909681, Final residual = 0.00018832007, No Iterations 3
bounding magU, min: 0 max: 37.942085 average: 7.5784356
    max leaf temp tl=max(new_Tl) [0 0 0 1 0 0 0] 317.53056k, iteration i=0
    max leaf temp tl=317.30701 K, iteration i=1
    max leaf temp tl=317.31321 K, iteration i=2
    max leaf temp tl=317.31737 K, iteration i=3
    max leaf temp tl=317.32015 K, iteration i=4
    max leaf temp tl=317.32203 K, iteration i=5
    max leaf temp tl=317.32328 K, iteration i=6
    max leaf temp tl=317.32413 K, iteration i=7
    max leaf temp tl=317.3247 K, iteration i=8
    max leaf temp tl=317.32508 K, iteration i=9
    max leaf temp tl=317.32534 K, iteration i=10
    max leaf temp tl=317.32551 K, iteration i=11
    max leaf temp tl=317.32562 K, iteration i=12
    max leaf temp tl=317.3257 K, iteration i=13
Vegetation model:  Solving for Tl, Final residual = 0.022267253, Final relative residual = 7.0171602e-05, No Iterations 13
temperature parameters: max Tl = 317.32704, min T = 296.03476, max T = 329.7255
resistances: max rs = 2982.4416, max ra = 92.189104
DILUPBiCGStab:  Solving for epsilon, Initial residual = 0.036774055, Final residual = 4.5752459e-05, No Iterations 1
DILUPBiCGStab:  Solving for k, Initial residual = 0.035684387, Final residual = 5.9510351e-05, No Iterations 1

Internal iteration number: 28
DILUPBiCGStab:  Solving for Ux, Initial residual = 0.049689647, Final residual = 0.00023116222, No Iterations 2
DILUPBiCGStab:  Solving for Uy, Initial residual = 0.075032593, Final residual = 0.00015573472, No Iterations 2
DILUPBiCGStab:  Solving for Uz, Initial residual = 0.075532394, Final residual = 0.00034079725, No Iterations 2
DILUPBiCGStab:  Solving for h, Initial residual = 0.06462884, Final residual = 0.00042860606, No Iterations 2
Min/max T:295.57567 329.59725
GAMG:  Solving for p_rgh, Initial residual = 0.30267171, Final residual = 0.0023935585, No Iterations 2
time step continuity errors : sum local = 0.00027382818, global = 3.8430024e-05, cumulative = -18.6799
DILUPBiCGStab:  Solving for w, Initial residual = 0.031645987, Final residual = 0.00017496284, No Iterations 3
bounding magU, min: 0 max: 36.854342 average: 7.3606869
    max leaf temp tl=max(new_Tl) [0 0 0 1 0 0 0] 317.32704k, iteration i=0
    max leaf temp tl=316.91351 K, iteration i=1
    max leaf temp tl=316.9008 K, iteration i=2
    max leaf temp tl=316.89226 K, iteration i=3
    max leaf temp tl=316.88653 K, iteration i=4
    max leaf temp tl=316.8827 K, iteration i=5
    max leaf temp tl=316.88013 K, iteration i=6
    max leaf temp tl=316.87841 K, iteration i=7
    max leaf temp tl=316.87726 K, iteration i=8
    max leaf temp tl=316.8765 K, iteration i=9
    max leaf temp tl=316.87638 K, iteration i=10
    max leaf temp tl=316.87673 K, iteration i=11
    max leaf temp tl=316.87697 K, iteration i=12
    max leaf temp tl=316.87713 K, iteration i=13
Vegetation model:  Solving for Tl, Final residual = 0.022950406, Final relative residual = 7.242683e-05, No Iterations 13
temperature parameters: max Tl = 316.88018, min T = 295.57567, max T = 329.59725
resistances: max rs = 2975.293, max ra = 150.45389
DILUPBiCGStab:  Solving for epsilon, Initial residual = 0.035963343, Final residual = 4.3322771e-05, No Iterations 1
DILUPBiCGStab:  Solving for k, Initial residual = 0.033597027, Final residual = 5.4552916e-05, No Iterations 1

Internal iteration number: 29
DILUPBiCGStab:  Solving for Ux, Initial residual = 0.047553935, Final residual = 0.00045121448, No Iterations 2
DILUPBiCGStab:  Solving for Uy, Initial residual = 0.070335934, Final residual = 0.0001221301, No Iterations 2
DILUPBiCGStab:  Solving for Uz, Initial residual = 0.07142746, Final residual = 0.0003871679, No Iterations 2
DILUPBiCGStab:  Solving for h, Initial residual = 0.0639538, Final residual = 0.00047465721, No Iterations 2
Min/max T:296.73122 329.44458
GAMG:  Solving for p_rgh, Initial residual = 0.28832667, Final residual = 0.0022758719, No Iterations 2
time step continuity errors : sum local = 0.00023743213, global = 3.6785593e-05, cumulative = -18.679863
DILUPBiCGStab:  Solving for w, Initial residual = 0.030348891, Final residual = 0.00016011629, No Iterations 3
bounding magU, min: 0 max: 35.600423 average: 7.1568628
    max leaf temp tl=max(new_Tl) [0 0 0 1 0 0 0] 316.88018k, iteration i=0
    max leaf temp tl=317.01026 K, iteration i=1
    max leaf temp tl=317.0059 K, iteration i=2
    max leaf temp tl=317.00298 K, iteration i=3
    max leaf temp tl=317.00103 K, iteration i=4
    max leaf temp tl=316.99973 K, iteration i=5
    max leaf temp tl=316.99885 K, iteration i=6
    max leaf temp tl=316.99827 K, iteration i=7
    max leaf temp tl=316.99788 K, iteration i=8
    max leaf temp tl=316.99762 K, iteration i=9
    max leaf temp tl=316.99744 K, iteration i=10
    max leaf temp tl=316.99733 K, iteration i=11
    max leaf temp tl=316.99725 K, iteration i=12
Vegetation model:  Solving for Tl, Final residual = 0.028109762, Final relative residual = 8.8675097e-05, No Iterations 12
temperature parameters: max Tl = 316.99611, min T = 296.73122, max T = 329.44458
resistances: max rs = 2964.962, max ra = 125.71175
DILUPBiCGStab:  Solving for epsilon, Initial residual = 0.035145088, Final residual = 4.0842557e-05, No Iterations 1
DILUPBiCGStab:  Solving for k, Initial residual = 0.031768601, Final residual = 4.9952195e-05, No Iterations 1

Internal iteration number: 30
DILUPBiCGStab:  Solving for Ux, Initial residual = 0.045521925, Final residual = 0.00029972526, No Iterations 2
DILUPBiCGStab:  Solving for Uy, Initial residual = 0.065941245, Final residual = 0.00019703367, No Iterations 2
DILUPBiCGStab:  Solving for Uz, Initial residual = 0.067408778, Final residual = 0.00040081009, No Iterations 2
DILUPBiCGStab:  Solving for h, Initial residual = 0.062876035, Final residual = 0.00053040355, No Iterations 2
Min/max T:296.98851 329.2892
GAMG:  Solving for p_rgh, Initial residual = 0.27477259, Final residual = 0.0020989363, No Iterations 2
time step continuity errors : sum local = 0.00020075023, global = 3.68395e-05, cumulative = -18.679827
DILUPBiCGStab:  Solving for w, Initial residual = 0.029161225, Final residual = 0.00014750812, No Iterations 3
bounding magU, min: 0 max: 34.295354 average: 6.959341
    max leaf temp tl=max(new_Tl) [0 0 0 1 0 0 0] 316.99611k, iteration i=0
    max leaf temp tl=317.0407 K, iteration i=1
    max leaf temp tl=317.0393 K, iteration i=2
    max leaf temp tl=317.03836 K, iteration i=3
    max leaf temp tl=317.03773 K, iteration i=4
    max leaf temp tl=317.03732 K, iteration i=5
    max leaf temp tl=317.03703 K, iteration i=6
    max leaf temp tl=317.03685 K, iteration i=7
    max leaf temp tl=317.03672 K, iteration i=8
    max leaf temp tl=317.03664 K, iteration i=9
    max leaf temp tl=317.03658 K, iteration i=10
    max leaf temp tl=317.03654 K, iteration i=11
    max leaf temp tl=317.03652 K, iteration i=12
Vegetation model:  Solving for Tl, Final residual = 0.024719379, Final relative residual = 7.797013e-05, No Iterations 12
temperature parameters: max Tl = 317.03615, min T = 296.98851, max T = 329.2892
resistances: max rs = 2951.8768, max ra = 208.53311
DILUPBiCGStab:  Solving for epsilon, Initial residual = 0.034348423, Final residual = 3.8534786e-05, No Iterations 1
DILUPBiCGStab:  Solving for k, Initial residual = 0.030075977, Final residual = 4.5951149e-05, No Iterations 1

Internal iteration number: 31
DILUPBiCGStab:  Solving for Ux, Initial residual = 0.04364943, Final residual = 0.00025620653, No Iterations 2
DILUPBiCGStab:  Solving for Uy, Initial residual = 0.061810028, Final residual = 0.00015235453, No Iterations 2
DILUPBiCGStab:  Solving for Uz, Initial residual = 0.063735573, Final residual = 0.00044985146, No Iterations 2
DILUPBiCGStab:  Solving for h, Initial residual = 0.061769408, Final residual = 0.00059443138, No Iterations 2
Min/max T:296.98901 329.08279
GAMG:  Solving for p_rgh, Initial residual = 0.26257279, Final residual = 0.0018106551, No Iterations 2
time step continuity errors : sum local = 0.00015933928, global = 3.5039858e-05, cumulative = -18.679792
DILUPBiCGStab:  Solving for w, Initial residual = 0.028083208, Final residual = 0.0001360249, No Iterations 3
bounding magU, min: 0 max: 32.882057 average: 6.7670556
    max leaf temp tl=max(new_Tl) [0 0 0 1 0 0 0] 317.03615k, iteration i=0
    max leaf temp tl=316.95588 K, iteration i=1
    max leaf temp tl=316.95838 K, iteration i=2
    max leaf temp tl=316.96005 K, iteration i=3
    max leaf temp tl=316.96116 K, iteration i=4
    max leaf temp tl=316.96191 K, iteration i=5
    max leaf temp tl=316.9624 K, iteration i=6
    max leaf temp tl=316.96274 K, iteration i=7
    max leaf temp tl=316.96296 K, iteration i=8
    max leaf temp tl=316.96311 K, iteration i=9
    max leaf temp tl=316.96321 K, iteration i=10
    max leaf temp tl=316.96328 K, iteration i=11
    max leaf temp tl=316.96332 K, iteration i=12
Vegetation model:  Solving for Tl, Final residual = 0.023334282, Final relative residual = 7.361824e-05, No Iterations 12
temperature parameters: max Tl = 316.964, min T = 296.98901, max T = 329.08279
resistances: max rs = 2935.9762, max ra = 236.85939
DILUPBiCGStab:  Solving for epsilon, Initial residual = 0.033625703, Final residual = 3.6413475e-05, No Iterations 1
DILUPBiCGStab:  Solving for k, Initial residual = 0.028573675, Final residual = 4.2415379e-05, No Iterations 1

Internal iteration number: 32
DILUPBiCGStab:  Solving for Ux, Initial residual = 0.041836034, Final residual = 0.00014229038, No Iterations 2
DILUPBiCGStab:  Solving for Uy, Initial residual = 0.057749545, Final residual = 0.0001392258, No Iterations 2
DILUPBiCGStab:  Solving for Uz, Initial residual = 0.060396131, Final residual = 0.00013399784, No Iterations 2
DILUPBiCGStab:  Solving for h, Initial residual = 0.061063815, Final residual = 0.00020111719, No Iterations 2
Min/max T:296.998 328.8615
GAMG:  Solving for p_rgh, Initial residual = 0.24883266, Final residual = 0.0017899356, No Iterations 2
time step continuity errors : sum local = 0.0001466224, global = 3.2871193e-05, cumulative = -18.679759
DILUPBiCGStab:  Solving for w, Initial residual = 0.027074246, Final residual = 0.00012333041, No Iterations 3
bounding magU, min: 0 max: 31.433071 average: 6.5828808
    max leaf temp tl=max(new_Tl) [0 0 0 1 0 0 0] 316.964k, iteration i=0
    max leaf temp tl=316.78122 K, iteration i=1
    max leaf temp tl=316.78686 K, iteration i=2
    max leaf temp tl=316.79063 K, iteration i=3
    max leaf temp tl=316.79315 K, iteration i=4
    max leaf temp tl=316.79483 K, iteration i=5
    max leaf temp tl=316.79596 K, iteration i=6
    max leaf temp tl=316.79671 K, iteration i=7
    max leaf temp tl=316.79722 K, iteration i=8
    max leaf temp tl=316.79755 K, iteration i=9
    max leaf temp tl=316.79778 K, iteration i=10
    max leaf temp tl=316.79793 K, iteration i=11
    max leaf temp tl=316.79803 K, iteration i=12
Vegetation model:  Solving for Tl, Final residual = 0.022520236, Final relative residual = 7.1087046e-05, No Iterations 12
temperature parameters: max Tl = 316.79958, min T = 296.998, max T = 328.8615
resistances: max rs = 2916.5224, max ra = 161.87044
DILUPBiCGStab:  Solving for epsilon, Initial residual = 0.033036231, Final residual = 3.4370139e-05, No Iterations 1
DILUPBiCGStab:  Solving for k, Initial residual = 0.027233675, Final residual = 3.9146159e-05, No Iterations 1

Internal iteration number: 33
DILUPBiCGStab:  Solving for Ux, Initial residual = 0.040065986, Final residual = 0.00010764138, No Iterations 2
DILUPBiCGStab:  Solving for Uy, Initial residual = 0.054180355, Final residual = 0.00013025794, No Iterations 2
DILUPBiCGStab:  Solving for Uz, Initial residual = 0.057018877, Final residual = 0.0004905952, No Iterations 2
DILUPBiCGStab:  Solving for h, Initial residual = 0.060038646, Final residual = 0.00023383085, No Iterations 2
Min/max T:296.99923 328.42371
GAMG:  Solving for p_rgh, Initial residual = 0.23482951, Final residual = 0.0018132801, No Iterations 2
time step continuity errors : sum local = 0.00013942832, global = 3.1170005e-05, cumulative = -18.679728
DILUPBiCGStab:  Solving for w, Initial residual = 0.026165561, Final residual = 0.00024829203, No Iterations 3
bounding magU, min: 0 max: 29.902862 average: 6.4066729
    max leaf temp tl=max(new_Tl) [0 0 0 1 0 0 0] 316.79958k, iteration i=0
    max leaf temp tl=316.59691 K, iteration i=1
    max leaf temp tl=316.59925 K, iteration i=2
    max leaf temp tl=316.60082 K, iteration i=3
    max leaf temp tl=316.60188 K, iteration i=4
    max leaf temp tl=316.60259 K, iteration i=5
    max leaf temp tl=316.60307 K, iteration i=6
    max leaf temp tl=316.60339 K, iteration i=7
    max leaf temp tl=316.6036 K, iteration i=8
    max leaf temp tl=316.60375 K, iteration i=9
    max leaf temp tl=316.60384 K, iteration i=10
    max leaf temp tl=316.60391 K, iteration i=11
Vegetation model:  Solving for Tl, Final residual = 0.029141232, Final relative residual = 9.2043184e-05, No Iterations 11
temperature parameters: max Tl = 316.60503, min T = 296.99923, max T = 328.42371
resistances: max rs = 2899.2937, max ra = 244.38684
DILUPBiCGStab:  Solving for epsilon, Initial residual = 0.032564276, Final residual = 3.2461338e-05, No Iterations 1
DILUPBiCGStab:  Solving for k, Initial residual = 0.026104433, Final residual = 3.6214682e-05, No Iterations 1

Internal iteration number: 34
DILUPBiCGStab:  Solving for Ux, Initial residual = 0.038301691, Final residual = 9.1266928e-05, No Iterations 2
DILUPBiCGStab:  Solving for Uy, Initial residual = 0.051061389, Final residual = 0.00012192068, No Iterations 2
DILUPBiCGStab:  Solving for Uz, Initial residual = 0.053762468, Final residual = 0.0001435794, No Iterations 2
DILUPBiCGStab:  Solving for h, Initial residual = 0.058558527, Final residual = 0.0002694298, No Iterations 2
Min/max T:297 327.95854
GAMG:  Solving for p_rgh, Initial residual = 0.22281173, Final residual = 0.0017969919, No Iterations 2
time step continuity errors : sum local = 0.00012917236, global = 2.0062908e-05, cumulative = -18.679707
DILUPBiCGStab:  Solving for w, Initial residual = 0.025401805, Final residual = 0.0002254199, No Iterations 3
bounding magU, min: 0 max: 28.408776 average: 6.2369461
    max leaf temp tl=max(new_Tl) [0 0 0 1 0 0 0] 316.60503k, iteration i=0
    max leaf temp tl=316.4752 K, iteration i=1
    max leaf temp tl=316.4788 K, iteration i=2
    max leaf temp tl=316.48121 K, iteration i=3
    max leaf temp tl=316.48283 K, iteration i=4
    max leaf temp tl=316.48392 K, iteration i=5
    max leaf temp tl=316.48466 K, iteration i=6
    max leaf temp tl=316.48515 K, iteration i=7
    max leaf temp tl=316.48548 K, iteration i=8
    max leaf temp tl=316.4857 K, iteration i=9
    max leaf temp tl=316.48585 K, iteration i=10
    max leaf temp tl=316.48595 K, iteration i=11
Vegetation model:  Solving for Tl, Final residual = 0.029458684, Final relative residual = 9.3080543e-05, No Iterations 11
temperature parameters: max Tl = 316.48767, min T = 297.00324, max T = 327.95854
resistances: max rs = 2885.6472, max ra = 166.21574
DILUPBiCGStab:  Solving for epsilon, Initial residual = 0.032205117, Final residual = 3.0749665e-05, No Iterations 1
DILUPBiCGStab:  Solving for k, Initial residual = 0.025201664, Final residual = 3.3811759e-05, No Iterations 1

Internal iteration number: 35
DILUPBiCGStab:  Solving for Ux, Initial residual = 0.036540799, Final residual = 8.1395844e-05, No Iterations 2
DILUPBiCGStab:  Solving for Uy, Initial residual = 0.048400302, Final residual = 0.00011377749, No Iterations 2
DILUPBiCGStab:  Solving for Uz, Initial residual = 0.050707009, Final residual = 0.00011857165, No Iterations 2
DILUPBiCGStab:  Solving for h, Initial residual = 0.056580716, Final residual = 0.00030838924, No Iterations 2
Min/max T:297 327.32825
GAMG:  Solving for p_rgh, Initial residual = 0.21077766, Final residual = 0.001680363, No Iterations 2
time step continuity errors : sum local = 0.00011329727, global = 1.1474694e-05, cumulative = -18.679696
DILUPBiCGStab:  Solving for w, Initial residual = 0.024728502, Final residual = 0.00020414101, No Iterations 3
bounding magU, min: 0 max: 26.905058 average: 6.0718764
    max leaf temp tl=max(new_Tl) [0 0 0 1 0 0 0] 316.48767k, iteration i=0
    max leaf temp tl=316.32968 K, iteration i=1
    max leaf temp tl=316.33408 K, iteration i=2
    max leaf temp tl=316.33703 K, iteration i=3
    max leaf temp tl=316.33901 K, iteration i=4
    max leaf temp tl=316.34034 K, iteration i=5
    max leaf temp tl=316.34123 K, iteration i=6
    max leaf temp tl=316.34183 K, iteration i=7
    max leaf temp tl=316.34223 K, iteration i=8
    max leaf temp tl=316.3425 K, iteration i=9
    max leaf temp tl=316.34269 K, iteration i=10
    max leaf temp tl=316.34281 K, iteration i=11
Vegetation model:  Solving for Tl, Final residual = 0.030292648, Final relative residual = 9.5758926e-05, No Iterations 11
temperature parameters: max Tl = 316.3449, min T = 297.00378, max T = 327.32825
resistances: max rs = 2877.8361, max ra = 363.60185
DILUPBiCGStab:  Solving for epsilon, Initial residual = 0.03182175, Final residual = 2.90112e-05, No Iterations 1
DILUPBiCGStab:  Solving for k, Initial residual = 0.024290245, Final residual = 3.1156522e-05, No Iterations 1

Internal iteration number: 36
DILUPBiCGStab:  Solving for Ux, Initial residual = 0.034783564, Final residual = 7.4681622e-05, No Iterations 2
DILUPBiCGStab:  Solving for Uy, Initial residual = 0.045936024, Final residual = 0.00010535021, No Iterations 2
DILUPBiCGStab:  Solving for Uz, Initial residual = 0.048037983, Final residual = 0.00010939485, No Iterations 2
DILUPBiCGStab:  Solving for h, Initial residual = 0.054425514, Final residual = 0.00033688612, No Iterations 2
Min/max T:297 326.67466
GAMG:  Solving for p_rgh, Initial residual = 0.20066896, Final residual = 0.0016859356, No Iterations 2
time step continuity errors : sum local = 0.00010615714, global = 4.7402644e-06, cumulative = -18.679691
DILUPBiCGStab:  Solving for w, Initial residual = 0.024090597, Final residual = 0.00018536094, No Iterations 3
bounding magU, min: 0 max: 25.492151 average: 5.9124329
    max leaf temp tl=max(new_Tl) [0 0 0 1 0 0 0] 316.3449k, iteration i=0
    max leaf temp tl=316.13726 K, iteration i=1
    max leaf temp tl=316.14307 K, iteration i=2
[...]
DICPCG:  Solving for pc, Initial residual = 0.00017934298, Final residual = 3.391654e-13, No Iterations 1
DICPCG:  Solving for Ts, Initial residual = 0.00010539941, Final residual = 8.6594939e-11, No Iterations 1
maxChangews: 0.00086253686, maxChangeTs: 0.014487951
DICPCG:  Solving for pc, Initial residual = 0.00014751539, Final residual = 3.3595652e-13, No Iterations 1
DICPCG:  Solving for Ts, Initial residual = 1.7624209e-05, Final residual = 1.0230583e-11, No Iterations 1
Total internal iterations: 3
Time step continuity errors: sum local = 1.4674233e-06, global = 1.3477926e-08, cumulative = -1.0247417e-05
Increasing time step slowly...deltaT = 100
timeToOutput: 1975.3471

Time = 8824.65288162, deltaT = 100
solidInternalTime: 1624.6529
DICPCG:  Solving for pc, Initial residual = 0.0074109746, Final residual = 1.6285584e-11, No Iterations 1
DICPCG:  Solving for Ts, Initial residual = 0.0080218323, Final residual = 1.6959783e-12, No Iterations 2
maxChangews: 0.0090569408, maxChangeTs: 0.24320756
DICPCG:  Solving for pc, Initial residual = 0.00017203503, Final residual = 3.2230223e-13, No Iterations 1
DICPCG:  Solving for Ts, Initial residual = 0.00010438453, Final residual = 8.6157061e-11, No Iterations 1
maxChangews: 0.00089386184, maxChangeTs: 0.014127869
DICPCG:  Solving for pc, Initial residual = 0.00014645882, Final residual = 3.3430648e-13, No Iterations 1
DICPCG:  Solving for Ts, Initial residual = 1.7469153e-05, Final residual = 1.0133317e-11, No Iterations 1
Total internal iterations: 3
Time step continuity errors: sum local = 1.4744443e-06, global = 1.4571244e-08, cumulative = -1.0232846e-05
Increasing time step slowly...deltaT = 100
timeToOutput: 1875.3471

Time = 8924.65288162, deltaT = 100
solidInternalTime: 1724.6529
DICPCG:  Solving for pc, Initial residual = 0.0072883455, Final residual = 1.6158455e-11, No Iterations 1
DICPCG:  Solving for Ts, Initial residual = 0.0078750448, Final residual = 1.6780126e-12, No Iterations 2
maxChangews: 0.0090681244, maxChangeTs: 0.24097919
DICPCG:  Solving for pc, Initial residual = 0.000165857, Final residual = 3.0856435e-13, No Iterations 1
DICPCG:  Solving for Ts, Initial residual = 0.00010307483, Final residual = 8.5468124e-11, No Iterations 1
maxChangews: 0.00090697952, maxChangeTs: 0.013781527
DICPCG:  Solving for pc, Initial residual = 0.00014492552, Final residual = 3.3166452e-13, No Iterations 1
DICPCG:  Solving for Ts, Initial residual = 1.7258386e-05, Final residual = 1.0010376e-11, No Iterations 1
Total internal iterations: 3
Time step continuity errors: sum local = 1.4810089e-06, global = 1.5388008e-08, cumulative = -1.0217458e-05
Increasing time step slowly...deltaT = 100
Updating T boundary fields...
Updating T boundary fields...
Updating long-wave radiation heat transfer for region: vegetation
Constant cloud cover of 0 is being used...

LU Back substitute C matrix..
timeToOutput: 1775.3471

Time = 9024.65288162, deltaT = 100
solidInternalTime: 1824.6529
DICPCG:  Solving for pc, Initial residual = 0.0071687577, Final residual = 1.6019088e-11, No Iterations 1
DICPCG:  Solving for Ts, Initial residual = 0.0075958693, Final residual = 1.4442541e-12, No Iterations 2
maxChangews: 0.0090851382, maxChangeTs: 0.23876161
DICPCG:  Solving for pc, Initial residual = 0.00022288988, Final residual = 1.0869545e-12, No Iterations 1
DICPCG:  Solving for Ts, Initial residual = 7.3908209e-05, Final residual = 6.2821169e-11, No Iterations 1
maxChangews: 0.0022189293, maxChangeTs: 0.011674668
DICPCG:  Solving for pc, Initial residual = 0.00010218244, Final residual = 2.3988109e-13, No Iterations 1
DICPCG:  Solving for Ts, Initial residual = 1.2239978e-05, Final residual = 7.1904352e-12, No Iterations 1
Total internal iterations: 3
Time step continuity errors: sum local = 1.4532494e-06, global = 2.5733869e-09, cumulative = -1.0214885e-05
Increasing time step slowly...deltaT = 100
timeToOutput: 1675.3471

Time = 9124.65288162, deltaT = 100
solidInternalTime: 1924.6529
DICPCG:  Solving for pc, Initial residual = 0.0069274678, Final residual = 1.4698436e-11, No Iterations 1
DICPCG:  Solving for Ts, Initial residual = 0.0074656042, Final residual = 1.4793458e-12, No Iterations 2
maxChangews: 0.0089069451, maxChangeTs: 0.2365368
DICPCG:  Solving for pc, Initial residual = 0.00014972329, Final residual = 2.6439515e-13, No Iterations 1
DICPCG:  Solving for Ts, Initial residual = 8.9169136e-05, Final residual = 7.464113e-11, No Iterations 1
maxChangews: 0.00059254852, maxChangeTs: 0.012403808
DICPCG:  Solving for pc, Initial residual = 0.0001250243, Final residual = 2.8771505e-13, No Iterations 1
DICPCG:  Solving for Ts, Initial residual = 1.4936114e-05, Final residual = 8.660188e-12, No Iterations 1
Total internal iterations: 3
Time step continuity errors: sum local = 1.4754821e-06, global = 1.2414406e-08, cumulative = -1.020247e-05
Increasing time step slowly...deltaT = 100
timeToOutput: 1575.3471

Time = 9224.65288162, deltaT = 100
solidInternalTime: 2024.6529
DICPCG:  Solving for pc, Initial residual = 0.0068224368, Final residual = 1.4719516e-11, No Iterations 1
DICPCG:  Solving for Ts, Initial residual = 0.0073426285, Final residual = 1.486942e-12, No Iterations 2
maxChangews: 0.0087981398, maxChangeTs: 0.23429346
DICPCG:  Solving for pc, Initial residual = 0.00015682148, Final residual = 3.0524759e-13, No Iterations 1
DICPCG:  Solving for Ts, Initial residual = 9.1187863e-05, Final residual = 7.6412023e-11, No Iterations 1
maxChangews: 0.00066967596, maxChangeTs: 0.012346851
DICPCG:  Solving for pc, Initial residual = 0.00012830078, Final residual = 2.9527944e-13, No Iterations 1
DICPCG:  Solving for Ts, Initial residual = 1.5293315e-05, Final residual = 8.8609054e-12, No Iterations 1
Total internal iterations: 3
Time step continuity errors: sum local = 1.4865225e-06, global = 1.4719242e-08, cumulative = -1.0187751e-05
Increasing time step slowly...deltaT = 100
timeToOutput: 1475.3471

Time = 9324.65288162, deltaT = 100
solidInternalTime: 2124.6529
DICPCG:  Solving for pc, Initial residual = 0.0067180403, Final residual = 1.4690614e-11, No Iterations 1
DICPCG:  Solving for Ts, Initial residual = 0.0072203428, Final residual = 1.4850137e-12, No Iterations 2
maxChangews: 0.0087311939, maxChangeTs: 0.23204174
DICPCG:  Solving for pc, Initial residual = 0.0001527894, Final residual = 2.9364331e-13, No Iterations 1
DICPCG:  Solving for Ts, Initial residual = 9.13778e-05, Final residual = 7.6818409e-11, No Iterations 1
maxChangews: 0.00075804948, maxChangeTs: 0.012193532
DICPCG:  Solving for pc, Initial residual = 0.00012885427, Final residual = 2.9719722e-13, No Iterations 1
DICPCG:  Solving for Ts, Initial residual = 1.5328386e-05, Final residual = 8.8867013e-12, No Iterations 1
Total internal iterations: 3
Time step continuity errors: sum local = 1.4947532e-06, global = 1.5950632e-08, cumulative = -1.01718e-05
Increasing time step slowly...deltaT = 100
timeToOutput: 1375.3471

Time = 9424.65288162, deltaT = 100
solidInternalTime: 2224.6529
DICPCG:  Solving for pc, Initial residual = 0.006614713, Final residual = 1.4626273e-11, No Iterations 1
DICPCG:  Solving for Ts, Initial residual = 0.0070996502, Final residual = 1.4781288e-12, No Iterations 2
maxChangews: 0.0086971814, maxChangeTs: 0.22980217
DICPCG:  Solving for pc, Initial residual = 0.00014788915, Final residual = 2.8110948e-13, No Iterations 1
DICPCG:  Solving for Ts, Initial residual = 9.0868259e-05, Final residual = 7.6672318e-11, No Iterations 1
maxChangews: 0.00079460473, maxChangeTs: 0.012012217
DICPCG:  Solving for pc, Initial residual = 0.00012835675, Final residual = 2.9695351e-13, No Iterations 1
DICPCG:  Solving for Ts, Initial residual = 1.5240748e-05, Final residual = 8.844943e-12, No Iterations 1
Total internal iterations: 3
Time step continuity errors: sum local = 1.5018858e-06, global = 1.6744158e-08, cumulative = -1.0155056e-05
Increasing time step slowly...deltaT = 100
timeToOutput: 1275.3471

Time = 9524.65288162, deltaT = 100
solidInternalTime: 2324.6529
DICPCG:  Solving for pc, Initial residual = 0.0065128642, Final residual = 1.4539618e-11, No Iterations 1
DICPCG:  Solving for Ts, Initial residual = 0.0069809902, Final residual = 1.4682628e-12, No Iterations 2
maxChangews: 0.0086829203, maxChangeTs: 0.22759762
DICPCG:  Solving for pc, Initial residual = 0.00014335903, Final residual = 2.7078049e-13, No Iterations 1
DICPCG:  Solving for Ts, Initial residual = 9.0019361e-05, Final residual = 7.6248563e-11, No Iterations 1
maxChangews: 0.00081279648, maxChangeTs: 0.011823546
DICPCG:  Solving for pc, Initial residual = 0.00012734181, Final residual = 2.9561402e-13, No Iterations 1
DICPCG:  Solving for Ts, Initial residual = 1.5093434e-05, Final residual = 8.7706783e-12, No Iterations 1
Total internal iterations: 3
Time step continuity errors: sum local = 1.5084883e-06, global = 1.7303432e-08, cumulative = -1.0137753e-05
Increasing time step slowly...deltaT = 100
Updating T boundary fields...
Updating T boundary fields...
Updating long-wave radiation heat transfer for region: vegetation
Constant cloud cover of 0 is being used...

LU Back substitute C matrix..
timeToOutput: 1175.3471

Time = 9624.65288162, deltaT = 100
solidInternalTime: 2424.6529
DICPCG:  Solving for pc, Initial residual = 0.006412757, Final residual = 1.4438271e-11, No Iterations 1
DICPCG:  Solving for Ts, Initial residual = 0.0067437897, Final residual = 1.2713206e-12, No Iterations 2
maxChangews: 0.0086793893, maxChangeTs: 0.22541593
DICPCG:  Solving for pc, Initial residual = 0.00018953362, Final residual = 9.7092903e-13, No Iterations 1
DICPCG:  Solving for Ts, Initial residual = 6.4991264e-05, Final residual = 5.6382571e-11, No Iterations 1
maxChangews: 0.0021479897, maxChangeTs: 0.010103674
DICPCG:  Solving for pc, Initial residual = 9.0309773e-05, Final residual = 2.1509356e-13, No Iterations 1
DICPCG:  Solving for Ts, Initial residual = 1.0755111e-05, Final residual = 6.3541729e-12, No Iterations 1
Total internal iterations: 3
Time step continuity errors: sum local = 1.4916885e-06, global = 4.8016574e-09, cumulative = -1.0132951e-05
Increasing time step slowly...deltaT = 100
timeToOutput: 1075.3471

Time = 9724.65288162, deltaT = 100
solidInternalTime: 2524.6529
DICPCG:  Solving for pc, Initial residual = 0.0062058687, Final residual = 1.3272966e-11, No Iterations 1
DICPCG:  Solving for Ts, Initial residual = 0.0066395633, Final residual = 1.3028964e-12, No Iterations 2
maxChangews: 0.0085617742, maxChangeTs: 0.22323836
DICPCG:  Solving for pc, Initial residual = 0.00012956777, Final residual = 2.3218057e-13, No Iterations 1
DICPCG:  Solving for Ts, Initial residual = 7.8462458e-05, Final residual = 6.6947921e-11, No Iterations 1
maxChangews: 0.00051348848, maxChangeTs: 0.010810695
DICPCG:  Solving for pc, Initial residual = 0.00011050929, Final residual = 2.5813681e-13, No Iterations 1
DICPCG:  Solving for Ts, Initial residual = 1.3135472e-05, Final residual = 7.6476136e-12, No Iterations 1
Total internal iterations: 3
Time step continuity errors: sum local = 1.5098312e-06, global = 1.3942365e-08, cumulative = -1.0119009e-05
Increasing time step slowly...deltaT = 100
timeToOutput: 975.34712

Time = 9824.65288162, deltaT = 100
solidInternalTime: 2624.6529
DICPCG:  Solving for pc, Initial residual = 0.0061169195, Final residual = 1.3308262e-11, No Iterations 1
DICPCG:  Solving for Ts, Initial residual = 0.0065378381, Final residual = 1.312383e-12, No Iterations 2
maxChangews: 0.0084538145, maxChangeTs: 0.22105284
DICPCG:  Solving for pc, Initial residual = 0.00013723692, Final residual = 2.7257237e-13, No Iterations 1
DICPCG:  Solving for Ts, Initial residual = 8.0354152e-05, Final residual = 6.8630207e-11, No Iterations 1
maxChangews: 0.00061205761, maxChangeTs: 0.010829169
DICPCG:  Solving for pc, Initial residual = 0.00011352303, Final residual = 2.6544288e-13, No Iterations 1
DICPCG:  Solving for Ts, Initial residual = 1.346412e-05, Final residual = 7.8373051e-12, No Iterations 1
Total internal iterations: 3
Time step continuity errors: sum local = 1.5186782e-06, global = 1.5973663e-08, cumulative = -1.0103035e-05
Increasing time step slowly...deltaT = 100
timeToOutput: 875.34712

Time = 9924.65288162, deltaT = 100
solidInternalTime: 2724.6529
DICPCG:  Solving for pc, Initial residual = 0.0060278149, Final residual = 1.3297014e-11, No Iterations 1
DICPCG:  Solving for Ts, Initial residual = 0.0064355101, Final residual = 1.3136904e-12, No Iterations 2
maxChangews: 0.0083870635, maxChangeTs: 0.21886783
DICPCG:  Solving for pc, Initial residual = 0.00013428585, Final residual = 2.6358354e-13, No Iterations 1
DICPCG:  Solving for Ts, Initial residual = 8.0633536e-05, Final residual = 6.9079377e-11, No Iterations 1
maxChangews: 0.00069405086, maxChangeTs: 0.010754536
DICPCG:  Solving for pc, Initial residual = 0.00011413552, Final residual = 2.676314e-13, No Iterations 1
DICPCG:  Solving for Ts, Initial residual = 1.3509079e-05, Final residual = 7.8735124e-12, No Iterations 1
Total internal iterations: 3
Time step continuity errors: sum local = 1.5262487e-06, global = 1.7006279e-08, cumulative = -1.0086029e-05
Increasing time step slowly...deltaT = 100
timeToOutput: 775.34712

Time = 10024.6528816, deltaT = 100
solidInternalTime: 2824.6529
DICPCG:  Solving for pc, Initial residual = 0.0059394713, Final residual = 1.3252704e-11, No Iterations 1
DICPCG:  Solving for Ts, Initial residual = 0.0063340057, Final residual = 1.3104276e-12, No Iterations 2
maxChangews: 0.0083524917, maxChangeTs: 0.21670175
DICPCG:  Solving for pc, Initial residual = 0.00013056806, Final residual = 2.5313841e-13, No Iterations 1
DICPCG:  Solving for Ts, Initial residual = 8.0285191e-05, Final residual = 6.9028243e-11, No Iterations 1
maxChangews: 0.00072891357, maxChangeTs: 0.010647064
DICPCG:  Solving for pc, Initial residual = 0.00011380797, Final residual = 2.6775061e-13, No Iterations 1
DICPCG:  Solving for Ts, Initial residual = 1.3444298e-05, Final residual = 7.8490122e-12, No Iterations 1
Total internal iterations: 3
Time step continuity errors: sum local = 1.5333103e-06, global = 1.763712e-08, cumulative = -1.0068392e-05
Increasing time step slowly...deltaT = 100
timeToOutput: 675.34712

Time = 10124.6528816, deltaT = 100
solidInternalTime: 2924.6529
DICPCG:  Solving for pc, Initial residual = 0.0058522338, Final residual = 1.3187115e-11, No Iterations 1
DICPCG:  Solving for Ts, Initial residual = 0.0062338213, Final residual = 1.3042818e-12, No Iterations 2
maxChangews: 0.0083370748, maxChangeTs: 0.2145753
DICPCG:  Solving for pc, Initial residual = 0.00012694069, Final residual = 2.4444124e-13, No Iterations 1
DICPCG:  Solving for Ts, Initial residual = 7.9628671e-05, Final residual = 6.8725349e-11, No Iterations 1
maxChangews: 0.0007468139, maxChangeTs: 0.010525727
DICPCG:  Solving for pc, Initial residual = 0.00011301367, Final residual = 2.6682425e-13, No Iterations 1
DICPCG:  Solving for Ts, Initial residual = 1.332585e-05, Final residual = 7.7947187e-12, No Iterations 1
Total internal iterations: 3
Time step continuity errors: sum local = 1.5401408e-06, global = 1.8056837e-08, cumulative = -1.0050335e-05
Increasing time step slowly...deltaT = 100
Updating T boundary fields...
Updating T boundary fields...
Updating long-wave radiation heat transfer for region: vegetation
Constant cloud cover of 0 is being used...

LU Back substitute C matrix..
timeToOutput: 575.34712

Time = 10224.6528816, deltaT = 100
solidInternalTime: 3024.6529
DICPCG:  Solving for pc, Initial residual = 0.0057662843, Final residual = 1.31072e-11, No Iterations 1
DICPCG:  Solving for Ts, Initial residual = 0.0060276703, Final residual = 1.1322022e-12, No Iterations 2
maxChangews: 0.0083319596, maxChangeTs: 0.21247597
DICPCG:  Solving for pc, Initial residual = 0.00016704571, Final residual = 8.8691502e-13, No Iterations 1
DICPCG:  Solving for Ts, Initial residual = 5.7579466e-05, Final residual = 5.0940232e-11, No Iterations 1
Total internal iterations: 2
Time step continuity errors: sum local = 2.5426747e-06, global = -2.0662946e-07, cumulative = -1.0256964e-05
Increasing time step slowly...deltaT = 100
timeToOutput: 475.34712

Time = 10324.6528816, deltaT = 100
solidInternalTime: 3124.6529
DICPCG:  Solving for pc, Initial residual = 0.0055867112, Final residual = 1.2052127e-11, No Iterations 1
DICPCG:  Solving for Ts, Initial residual = 0.0059412953, Final residual = 1.1607418e-12, No Iterations 2
maxChangews: 0.0082147493, maxChangeTs: 0.21038486
DICPCG:  Solving for pc, Initial residual = 0.00012715122, Final residual = 2.3344187e-13, No Iterations 1
DICPCG:  Solving for Ts, Initial residual = 7.0715617e-05, Final residual = 6.0890247e-11, No Iterations 1
Total internal iterations: 2
Time step continuity errors: sum local = 2.8651295e-06, global = -2.50978e-07, cumulative = -1.0507942e-05
Increasing time step slowly...deltaT = 100
timeToOutput: 375.34712

Time = 10424.6528816, deltaT = 100
solidInternalTime: 3224.6529
DICPCG:  Solving for pc, Initial residual = 0.005511519, Final residual = 1.2088505e-11, No Iterations 1
DICPCG:  Solving for Ts, Initial residual = 0.005855906, Final residual = 1.1712297e-12, No Iterations 2
maxChangews: 0.0081075049, maxChangeTs: 0.20828974
DICPCG:  Solving for pc, Initial residual = 0.0001395042, Final residual = 2.756486e-13, No Iterations 1
DICPCG:  Solving for Ts, Initial residual = 7.3121743e-05, Final residual = 6.2689663e-11, No Iterations 1
Total internal iterations: 2
Time step continuity errors: sum local = 2.9393945e-06, global = -2.6022447e-07, cumulative = -1.0768167e-05
Increasing time step slowly...deltaT = 100
timeToOutput: 275.34712

Time = 10524.6528816, deltaT = 100
solidInternalTime: 3324.6529
DICPCG:  Solving for pc, Initial residual = 0.0054354638, Final residual = 1.208503e-11, No Iterations 1
DICPCG:  Solving for Ts, Initial residual = 0.0057693026, Final residual = 1.174433e-12, No Iterations 2
maxChangews: 0.0080410716, maxChangeTs: 0.20619819
DICPCG:  Solving for pc, Initial residual = 0.00013894041, Final residual = 2.6960951e-13, No Iterations 1
DICPCG:  Solving for Ts, Initial residual = 7.3758438e-05, Final residual = 6.3266308e-11, No Iterations 1
Total internal iterations: 2
Time step continuity errors: sum local = 2.9715353e-06, global = -2.6357357e-07, cumulative = -1.103174e-05
Increasing time step slowly...deltaT = 100
timeToOutput: 175.34712

Time = 10624.6528816, deltaT = 100
solidInternalTime: 3424.6529
DICPCG:  Solving for pc, Initial residual = 0.0053596823, Final residual = 1.205216e-11, No Iterations 1
DICPCG:  Solving for Ts, Initial residual = 0.005682902, Final residual = 1.1734405e-12, No Iterations 2
maxChangews: 0.0080063243, maxChangeTs: 0.20412733
DICPCG:  Solving for pc, Initial residual = 0.00013620286, Final residual = 2.6096692e-13, No Iterations 1
DICPCG:  Solving for Ts, Initial residual = 7.3690424e-05, Final residual = 6.3340232e-11, No Iterations 1
Total internal iterations: 2
Time step continuity errors: sum local = 2.9861827e-06, global = -2.6452071e-07, cumulative = -1.1296261e-05
Increasing time step slowly...deltaT = 75.347118
timeToOutput: 75.347118

Time = 10724.6528816, deltaT = 75.347118
solidInternalTime: 3524.6529
DICPCG:  Solving for pc, Initial residual = 0.0039843692, Final residual = 5.281256e-12, No Iterations 1
DICPCG:  Solving for Ts, Initial residual = 0.0042265396, Final residual = 4.0594103e-13, No Iterations 2
maxChangews: 0.0060786022, maxChangeTs: 0.15260344
DICPCG:  Solving for pc, Initial residual = 7.6743353e-05, Final residual = 9.3597646e-14, No Iterations 1
DICPCG:  Solving for Ts, Initial residual = 4.1024483e-05, Final residual = 2.4870836e-11, No Iterations 1
Total internal iterations: 2
Time step continuity errors: sum local = 1.8817076e-06, global = -1.3106886e-07, cumulative = -1.142733e-05
Increasing time step slowly...deltaT = 0
timeToOutput: 0
ExecutionTime = 155.56 s  ClockTime = 156 s

End

